Auto-Transcript Start Time:  21:07:39, 09 Jun 2025 Pacific Daylight Time 
Current Directory: "C:\Users\.plain\Documents\MATLAB\MAE 185\UCSDMAE185-FN"

              Welcome to ANSYS Fluent 2024 R1

              Copyright 1987-2024 ANSYS, Inc. All Rights Reserved.
              Unauthorized use, distribution or duplication is prohibited.
              This product is subject to U.S. laws governing export and re-export.
              For full Legal Notice, see documentation.

Build Time: Nov 22 2023 10:31:01 EST  Build Id: 10184  
 
Connected License Server List:	1055@its-flexsw-srv.ucsd.edu

     --------------------------------------------------------------
     This is an academic version of ANSYS FLUENT. Usage of this product
     license is limited to the terms and conditions specified in your ANSYS
     license form, additional terms section.
     --------------------------------------------------------------
Host spawning Node 0 on machine "Core-1" (win64).

---------------------------------------------------------------------------------
ID    Hostname  Core   O.S.         PID    Vendor                               
---------------------------------------------------------------------------------
n13   Core-1    14/16  Windows-x64  94020  AMD Ryzen 7 5800X 8-Core Processor   
n12   Core-1    13/16  Windows-x64  94028  AMD Ryzen 7 5800X 8-Core Processor   
n11   Core-1    12/16  Windows-x64  92608  AMD Ryzen 7 5800X 8-Core Processor   
n10   Core-1    11/16  Windows-x64  93924  AMD Ryzen 7 5800X 8-Core Processor   
n9    Core-1    10/16  Windows-x64  13904  AMD Ryzen 7 5800X 8-Core Processor   
n8    Core-1    9/16   Windows-x64  93176  AMD Ryzen 7 5800X 8-Core Processor   
n7    Core-1    8/16   Windows-x64  26300  AMD Ryzen 7 5800X 8-Core Processor   
n6    Core-1    7/16   Windows-x64  91912  AMD Ryzen 7 5800X 8-Core Processor   
n5    Core-1    6/16   Windows-x64  92488  AMD Ryzen 7 5800X 8-Core Processor   
n4    Core-1    5/16   Windows-x64  92840  AMD Ryzen 7 5800X 8-Core Processor   
n3    Core-1    4/16   Windows-x64  88512  AMD Ryzen 7 5800X 8-Core Processor   
n2    Core-1    3/16   Windows-x64  91676  AMD Ryzen 7 5800X 8-Core Processor   
n1    Core-1    2/16   Windows-x64  2592   AMD Ryzen 7 5800X 8-Core Processor   
n0*   Core-1    1/16   Windows-x64  92792  AMD Ryzen 7 5800X 8-Core Processor   
host  Core-1           Windows-x64  93376  AMD Ryzen 7 5800X 8-Core Processor   

MPI Option Selected: intel
Selected system interconnect: default
---------------------------------------------------------------------------------

Cleanup script file is C:\\Users\\.plain\\Documents\\MATLAB\\MAE 185\\UCSDMAE185-FN\\cleanup-fluent-Core-1-93376.bat

Posting ANSYS Product Improvement Program startup data
Done.
Fast-loading "C:\PROGRA~1\ANSYSI~1\v241\fluent\fluent24.1.0\\addons\afd\lib\hdfio.bin"
Done.
Multicore SMT processors detected. Processor affinity set!

Reading from Core-1:"C:/Users/.plain/Documents/MATLAB/MAE 185/UCSDMAE185-FN/baseline.cas.h5" in NODE0 mode ...
  Reading mesh ...
Warning: reading 16 partition grid onto 14 compute node machine.
         will auto partition.
      401925 cells,     1 cell zone  ...
         401925 mixed cells,  zone id: 872
     2158046 faces,     8 face zones ...
        2080384 mixed interior faces,  zone id: 874
          75561 polygonal velocity-inlet faces,  zone id: 26
            152 polygonal mass-flow-inlet faces,  zone id: 27
            136 polygonal mass-flow-inlet faces,  zone id: 28
            139 polygonal mass-flow-inlet faces,  zone id: 29
            133 polygonal mass-flow-inlet faces,  zone id: 30
            137 polygonal mass-flow-inlet faces,  zone id: 31
           1404 polygonal pressure-outlet faces,  zone id: 32
     1507131 nodes,     1 node zone  ...
  Done.


Building...
     mesh
	auto partitioning mesh by Metis (fast),
	distributing mesh
		parts..............,
		faces..............,
		nodes..............,
		cells..............,
        bandwidth reduction using Reverse Cuthill-McKee: 28787/2785 = 10.3364
     materials,
     interface,
     domains,
	mixture
     zones,
	interior--zone8fl_maelstrom_double_inlet_area.step-volume
	zone8fl_maelstrom_double_inlet_area.step-volume:1
	outlet
	inlet_negx
	inlet_negy
	inlet_plusx
	inlet_plusy
	inlet_propellant
	zone8fl_maelstrom_double_inlet_area.step-volume
     parallel,
Done.

Reading from Core-1:"C:/Users/.plain/Documents/MATLAB/MAE 185/UCSDMAE185-FN/baseline.dat.h5" in NODE0 mode ...


  Reading results.
Parallel variables...

 turbulent viscosity limited to viscosity ratio of 1.000000e+05 in 29850 cells 
Done.

> (cx-gui-do cx-activate-item "Key Behavioral Changes*PanelButtons*PushButton1(OK)")
(cx-gui-do cx-activate-item "General*Table1*ButtonBox1(Mesh)*PushButton2(Display)")
(cx-gui-do cx-activate-item "Mesh Display*PanelButtons*PushButton1(OK)")
(cx-use-window-id 51)
(cx-set-camera-relative '(-0.357105 0.0655853 -0.296855) '(0 0 0) '(0.13368 -0.0322877 -0.213696) 0 0)
(cx-use-window-id 51)
(cx-set-camera-relative '(0.109843 0.155287 -0.215683) '(0 0 0) '(0.517413 -0.219474 0.341092) 0 0)
(cx-gui-do cx-activate-item "Mesh Display*PanelButtons*PushButton2(Cancel)")
(cx-use-window-id 51)
(cx-set-camera-relative '(0.0204312 -0.0631935 -0.0837501) '(0 0 0) '(-0.32772 0.145436 0.183733) 0 0)
(cx-use-window-id 51)
(cxg-clear-all-selections (cx-active-window))
(cxg-add-surfaces-to-selection '(zone8fl_maelstrom_double_inlet_area.step-volume:1) (cx-active-window))
(cx-use-window-id 51)
(cx-gui-do cx-activate-item "Quick Edit*Table1*PushButton4(icon_close)")
(cx-use-window-id 51)
(cx-use-window-id 51)
(cx-gui-do cx-set-list-tree-selections "NavigationPane*Frame2*Table1*List_Tree2" (list "Setup|Boundary Conditions"))
(cx-gui-do cx-set-list-tree-selections "NavigationPane*Frame2*Table1*List_Tree2" (list "Setup|Boundary Conditions"))
(cx-gui-do cx-activate-item "NavigationPane*Frame2*Table1*List_Tree2")
(cx-gui-do cx-set-list-tree-selections "NavigationPane*Frame2*Table1*List_Tree2" (list "Setup|Boundary Conditions"))
(cx-gui-do cx-set-list-selections "Boundary Conditions*Table1*List2(Zone)" '( 0))
(cx-gui-do cx-activate-item "Boundary Conditions*Table1*List2(Zone)")
(cx-use-window-id 51)
(cx-gui-do cx-set-list-selections "Boundary Conditions*Table1*List2(Zone)" '( 1))
(cx-gui-do cx-activate-item "Boundary Conditions*Table1*List2(Zone)")
(cx-use-window-id 51)
(cx-gui-do cx-set-list-selections "Boundary Conditions*Table1*List2(Zone)" '( 0))
(cx-gui-do cx-activate-item "Boundary Conditions*Table1*List2(Zone)")
(cx-gui-do cx-activate-item "Boundary Conditions*Table1*Table3*Table4*ButtonBox1*PushButton3(Display Mesh)")
(cx-gui-do cx-set-list-selections "Mesh Display*Table1*Frame3*List1(Surfaces)" '( 4 5 7))
(cx-gui-do cx-activate-item "Mesh Display*Table1*Frame3*List1(Surfaces)")
(cx-gui-do cx-set-list-selections "Mesh Display*Table1*Frame3*List1(Surfaces)" '( 5 7))
(cx-gui-do cx-activate-item "Mesh Display*Table1*Frame3*List1(Surfaces)")
(cx-gui-do cx-set-list-selections "Mesh Display*Table1*Frame3*List1(Surfaces)" '( 3 5 7))
(cx-gui-do cx-activate-item "Mesh Display*Table1*Frame3*List1(Surfaces)")
(cx-gui-do cx-set-list-selections "Mesh Display*Table1*Frame3*List1(Surfaces)" '( 3 4 5 7))
(cx-gui-do cx-activate-item "Mesh Display*Table1*Frame3*List1(Surfaces)")
(cx-gui-do cx-set-list-selections "Mesh Display*Table1*Frame3*List1(Surfaces)" '( 2 3 4 5 7))
(cx-gui-do cx-activate-item "Mesh Display*Table1*Frame3*List1(Surfaces)")
(cx-gui-do cx-set-list-selections "Mesh Display*Table1*Frame3*List1(Surfaces)" '( 1 2 3 4 5 7))
(cx-gui-do cx-activate-item "Mesh Display*Table1*Frame3*List1(Surfaces)")
(cx-gui-do cx-set-list-selections "Mesh Display*Table1*Frame3*List1(Surfaces)" '( 0 1 2 3 4 5 7))
(cx-gui-do cx-activate-item "Mesh Display*Table1*Frame3*List1(Surfaces)")
(cx-gui-do cx-set-list-selections "Mesh Display*Table1*Frame3*List1(Surfaces)" '( 0 1 2 3 4 5 6 7))
(cx-gui-do cx-activate-item "Mesh Display*Table1*Frame3*List1(Surfaces)")
(cx-gui-do cx-activate-item "Mesh Display*PanelButtons*PushButton1(OK)")
(cxg-clear-all-selections (cx-active-window))
(cxg-add-surfaces-to-selection '() (cx-active-window))
(cx-use-window-id 51)
(cx-set-camera-relative '(-0.0317541 0.0177901 0.0464211) '(0 0 0) '(-0.00325832 -0.0321057 0.0828979) 0 0)
(cx-gui-do cx-activate-item "Mesh Display*PanelButtons*PushButton2(Cancel)")
(cx-gui-do cx-set-list-selections "Boundary Conditions*Table1*List2(Zone)" '( 1))
(cx-gui-do cx-activate-item "Boundary Conditions*Table1*List2(Zone)")
(cx-gui-do cx-set-list-selections "Boundary Conditions*Table1*List2(Zone)" '( 0))
(cx-gui-do cx-activate-item "Boundary Conditions*Table1*List2(Zone)")
(cx-gui-do cx-set-list-selections "Boundary Conditions*Table1*List2(Zone)" '( 1))
(cx-gui-do cx-activate-item "Boundary Conditions*Table1*List2(Zone)")
(cx-use-window-id 51)
(cx-set-camera-relative '(-0.0758678 -0.205599 0.331431) '(0 0 0) '(-0.391402 0.131758 -0.303158) 0 0)
(cx-use-window-id 51)
(cx-set-camera-relative '(0.128073 0.0814229 0.141038) '(0 0 0) '(0.183597 -0.00364345 -0.180052) 0 0)
(cx-use-window-id 51)
(cx-use-window-id 51)
(cx-set-camera-relative '(-0.0548576 0.130683 -0.11163) '(0 0 0) '(0.259134 -0.136506 -0.277095) 0 0)
(cx-gui-do cx-set-list-selections "Boundary Conditions*Table1*List2(Zone)" '( 0))
(cx-gui-do cx-activate-item "Boundary Conditions*Table1*List2(Zone)")
(cx-gui-do cx-set-list-selections "Boundary Conditions*Table1*List2(Zone)" '( 3))
(cx-gui-do cx-activate-item "Boundary Conditions*Table1*List2(Zone)")
(cx-gui-do cx-set-list-selections "Boundary Conditions*Table1*List2(Zone)" '( 6))
(cx-gui-do cx-activate-item "Boundary Conditions*Table1*List2(Zone)")
(cx-gui-do cx-set-list-selections "Boundary Conditions*Table1*List2(Zone)" '( 5))
(cx-gui-do cx-activate-item "Boundary Conditions*Table1*List2(Zone)")
(cx-gui-do cx-set-list-selections "Boundary Conditions*Table1*List2(Zone)" '( 7))
(cx-gui-do cx-activate-item "Boundary Conditions*Table1*List2(Zone)")
(cx-use-window-id 51)
(cx-use-window-id 51)
(cx-use-window-id 51)
(cx-use-window-id 51)
(cx-use-window-id 51)
(cx-use-window-id 51)
(cx-use-window-id 51)
(cx-use-window-id 51)
(cx-use-window-id 51)
(cx-use-window-id 51)
(cx-use-window-id 51)
(cx-use-window-id 51)
(cx-use-window-id 51)
(cx-use-window-id 51)
(cx-use-window-id 51)
(cx-use-window-id 51)
(cx-use-window-id 51)
(cx-use-window-id 51)
(cx-use-window-id 51)
(cx-use-window-id 51)
(cx-use-window-id 51)
(cx-use-window-id 51)
(cx-use-window-id 51)
(cx-use-window-id 51)
(cx-use-window-id 51)
(cx-use-window-id 51)
(cx-use-window-id 51)
(cx-use-window-id 51)
(cx-use-window-id 51)
(cx-use-window-id 51)
(cx-use-window-id 51)
(cx-use-window-id 51)
(cx-use-window-id 51)
(cx-use-window-id 51)
(cx-use-window-id 51)
(cx-use-window-id 51)
(cx-use-window-id 51)
(cx-use-window-id 51)
(cx-use-window-id 51)
(cx-use-window-id 51)
(cx-use-window-id 51)
(cx-use-window-id 51)
(cx-use-window-id 51)
(cx-use-window-id 51)
(cx-use-window-id 51)
(cx-use-window-id 51)
(cx-use-window-id 51)
(cx-use-window-id 51)
(cx-use-window-id 51)
(cx-use-window-id 51)
(cx-use-window-id 51)
(cx-use-window-id 51)
(cx-use-window-id 51)
(cx-use-window-id 51)
(cx-use-window-id 51)
(cx-use-window-id 51)
(cx-use-window-id 51)
(cx-use-window-id 51)
(cx-use-window-id 51)
(cx-use-window-id 51)
(cx-use-window-id 51)
(cx-use-window-id 51)
(cx-use-window-id 51)
(cx-use-window-id 51)
(cx-use-window-id 51)
(cx-use-window-id 51)
(cx-use-window-id 51)
(cx-use-window-id 51)
(cx-use-window-id 51)
(cx-use-window-id 51)
(cx-use-window-id 51)
(cx-use-window-id 51)
(cx-use-window-id 51)
(cx-use-window-id 51)
(cx-use-window-id 51)
(cx-use-window-id 51)
(cx-use-window-id 51)
(cx-use-window-id 51)
(cx-use-window-id 51)
(cx-use-window-id 51)
(cx-use-window-id 51)
(cx-use-window-id 51)
(cx-use-window-id 51)
(cx-use-window-id 51)
(cx-use-window-id 51)
(cx-use-window-id 51)
(cx-use-window-id 51)
(cx-use-window-id 51)
(cx-use-window-id 51)
(cx-use-window-id 51)
(cx-use-window-id 51)
(cx-use-window-id 51)
(cx-use-window-id 51)
(cx-use-window-id 51)
(cx-use-window-id 51)
(cx-use-window-id 51)
(cx-use-window-id 51)
(cx-use-window-id 51)
(cx-use-window-id 51)
(cx-use-window-id 51)
(cx-use-window-id 51)
(cx-use-window-id 51)
(cx-use-window-id 51)
(cx-use-window-id 51)
(cx-use-window-id 51)
(cx-use-window-id 51)
(cx-use-window-id 51)
(cx-use-window-id 51)
(cx-use-window-id 51)
(cx-use-window-id 51)
(cx-use-window-id 51)
(cx-use-window-id 51)
(cx-use-window-id 51)
(cx-use-window-id 51)
(cx-use-window-id 51)
(cx-use-window-id 51)
(cx-use-window-id 51)
(cx-use-window-id 51)
(cx-use-window-id 51)
(cx-use-window-id 51)
(cx-use-window-id 51)
(cx-use-window-id 51)
(cx-set-camera-relative '(-0.0907655 -0.265618 -0.114998) '(0 0 0) '(-0.672436 0.0632437 0.102412) 0 0)
(cx-use-window-id 51)
(cx-use-window-id 51)
(cx-set-camera-relative '(0.178074 0.160571 -0.360549) '(0 0 0) '(0.796991 -0.0487022 0.230639) 0 0)
(cx-use-window-id 51)
(handle-key "??")
(cx-use-window-id 51)
(cx-set-camera '(-0.154161 0.0697349 -0.296707) '(-0.013205 0.000285629 -0.00624613) '(0.39352 0.918867 0.0287329) 0.0934063 0.0934063 "perspective")

(cx-use-window-id 51)
(handle-key "control ??")
(cx-use-window-id 51)
(dolly-camera -0.00802413 0.00663133 0)
(cx-gui-do cx-set-list-selections "Boundary Conditions*Table1*List2(Zone)" '( 0))
(cx-gui-do cx-activate-item "Boundary Conditions*Table1*List2(Zone)")
(cx-use-window-id 51)
(cx-set-camera-relative '(-0.158689 0.0605529 0.33916) '(0 0 0) '(0.0116872 -0.00645262 0.0288114) 0 0)
(cx-use-window-id 51)
(handle-key "control ??")
(cx-use-window-id 51)
(dolly-camera 0.00696704 -0.0110708 0)
(cx-use-window-id 51)
(cx-set-camera-relative '(0.0265836 0.010272 0.0730378) '(0 0 0) '(-0.00105426 -0.00785017 -0.193317) 0 0)
(cx-use-window-id 51)
(cxg-clear-all-selections (cx-active-window))
(cxg-add-surfaces-to-selection '(inlet_negx) (cx-active-window))
(cx-use-window-id 51)
(cx-use-window-id 51)
(handle-key "control ??")
(cx-use-window-id 51)
(dolly-camera 0.00616202 -0.0124572 0)
(cx-use-window-id 51)
(cx-set-camera-relative '(-0.00317687 -0.206024 0.0381801) '(0 0 0) '(-0.597029 0.0659444 0.280426) 0 0)
(cx-use-window-id 51)
(cx-use-window-id 51)
(cx-set-camera-relative '(-0.0485105 0.108829 -0.145694) '(0 0 0) '(0.303673 0.0230638 -0.168169) 0 0)
(cx-use-window-id 51)
(cx-set-camera-relative '(0.0661395 0.124854 -0.11732) '(0 0 0) '(0.420246 -0.148113 0.0801579) 0 0)
(cx-use-window-id 51)
(cxg-clear-all-selections (cx-active-window))
(cxg-add-surfaces-to-selection '(zone8fl_maelstrom_double_inlet_area.step-volume:1) (cx-active-window))
(cx-use-window-id 51)
(cx-set-camera-relative '(0.211513 -0.117707 -0.195229) '(0 0 0) '(-0.217155 0.0989975 0.0408153) 0 0)
(cx-use-window-id 51)
(cx-set-camera-relative '(-0.215311 0.105747 0.187294) '(0 0 0) '(0.110912 -0.0646998 0.116078) 0 0)
(cx-use-window-id 51)
(handle-key "control ??")
(cx-use-window-id 51)
(dolly-camera -0.0123006 0.01852 0)
(cx-use-window-id 51)
(handle-key "control ??")
(cx-use-window-id 51)
(dolly-camera 0.0133002 -0.011588 0)
(cx-use-window-id 51)
(handle-key "control ??")
(cx-use-window-id 51)
(dolly-camera 0.00659691 0.000162229 0)
(cx-gui-do cx-set-list-selections "Boundary Conditions*Table1*List2(Zone)" '( 7))
(cx-gui-do cx-activate-item "Boundary Conditions*Table1*List2(Zone)")
(cx-use-window-id 51)
(cx-gui-do cx-set-list-selections "Boundary Conditions*Table1*List2(Zone)" '( 5))
(cx-gui-do cx-activate-item "Boundary Conditions*Table1*List2(Zone)")
(cx-use-window-id 51)
(cx-use-window-id 51)
(cx-gui-do cx-set-list-selections "Boundary Conditions*Table1*List2(Zone)" '( 7))
(cx-gui-do cx-activate-item "Boundary Conditions*Table1*List2(Zone)")
(cx-gui-do cx-activate-item "Boundary Conditions*Table1*Table3*Table4*ButtonBox1*PushButton3(Display Mesh)")
(cx-gui-do cx-set-list-selections "Mesh Display*Table1*Frame3*List1(Surfaces)" '( 0 1 2 3 4 5 6))
(cx-gui-do cx-activate-item "Mesh Display*Table1*Frame3*List1(Surfaces)")
(cx-gui-do cx-activate-item "Mesh Display*PanelButtons*PushButton1(OK)")
(cxg-clear-all-selections (cx-active-window))
(cxg-add-surfaces-to-selection '() (cx-active-window))
(cx-gui-do cx-activate-item "Mesh Display*PanelButtons*PushButton2(Cancel)")
(cx-gui-do cx-set-list-selections "Boundary Conditions*Table1*List2(Zone)" '( 5))
(cx-gui-do cx-activate-item "Boundary Conditions*Table1*List2(Zone)")
(cx-gui-do cx-activate-item "Boundary Conditions*Table1*Table3*Table4*ButtonBox1*PushButton3(Display Mesh)")
(cx-gui-do cx-set-list-selections "Mesh Display*Table1*Frame3*List1(Surfaces)" '( 0 1 2 3 4 5 6 7))
(cx-gui-do cx-activate-item "Mesh Display*Table1*Frame3*List1(Surfaces)")
(cx-gui-do cx-set-list-selections "Mesh Display*Table1*Frame3*List1(Surfaces)" '( 0 1 2 3 4 5 6))
(cx-gui-do cx-activate-item "Mesh Display*Table1*Frame3*List1(Surfaces)")
(cx-gui-do cx-set-toggle-button2 "Mesh Display*Table1*Frame1*Frame1*ToggleBox1(Options)*CheckButton1(Nodes)" #t)
(cx-gui-do cx-activate-item "Mesh Display*Table1*Frame1*Frame1*ToggleBox1(Options)*CheckButton1(Nodes)")
(cx-gui-do cx-set-toggle-button2 "Mesh Display*Table1*Frame1*Frame1*ToggleBox1(Options)*CheckButton2(Edges)" #t)
(cx-gui-do cx-activate-item "Mesh Display*Table1*Frame1*Frame1*ToggleBox1(Options)*CheckButton2(Edges)")
(cx-gui-do cx-set-toggle-button2 "Mesh Display*Table1*Frame1*Frame1*ToggleBox1(Options)*CheckButton2(Edges)" #f)
(cx-gui-do cx-activate-item "Mesh Display*Table1*Frame1*Frame1*ToggleBox1(Options)*CheckButton2(Edges)")
(cx-gui-do cx-set-toggle-button2 "Mesh Display*Table1*Frame1*Frame1*ToggleBox1(Options)*CheckButton1(Nodes)" #f)
(cx-gui-do cx-activate-item "Mesh Display*Table1*Frame1*Frame1*ToggleBox1(Options)*CheckButton1(Nodes)")
(cx-gui-do cx-set-list-selections "Mesh Display*Table1*Frame3*List1(Surfaces)" '( 0 1 2 3 4 5 6 7))
(cx-gui-do cx-activate-item "Mesh Display*Table1*Frame3*List1(Surfaces)")
(cx-gui-do cx-activate-item "Mesh Display*PanelButtons*PushButton1(OK)")
(cx-gui-do cx-activate-item "Mesh Display*PanelButtons*PushButton2(Cancel)")
(cx-use-window-id 51)
(cxg-clear-all-selections (cx-active-window))
(cxg-add-surfaces-to-selection '(zone8fl_maelstrom_double_inlet_area.step-volume:1) (cx-active-window))
(cx-gui-do cx-set-list-selections "Boundary Conditions*Table1*List2(Zone)" '( 7))
(cx-gui-do cx-activate-item "Boundary Conditions*Table1*List2(Zone)")
(cx-gui-do cx-activate-item "Quick Edit*Table1*PushButton4(icon_close)")
(cx-gui-do cx-set-list-selections "Boundary Conditions*Table1*List2(Zone)" '( 6))
(cx-gui-do cx-activate-item "Boundary Conditions*Table1*List2(Zone)")
(cx-gui-do cx-set-list-selections "Boundary Conditions*Table1*List2(Zone)" '( 7))
(cx-gui-do cx-activate-item "Boundary Conditions*Table1*List2(Zone)")
(cx-gui-do cx-set-list-selections "Boundary Conditions*Table1*List2(Zone)" '( 3))
(cx-gui-do cx-activate-item "Boundary Conditions*Table1*List2(Zone)")
(cx-gui-do cx-set-list-selections "Boundary Conditions*Table1*List2(Zone)" '( 1))
(cx-gui-do cx-activate-item "Boundary Conditions*Table1*List2(Zone)")
(cx-gui-do cx-set-list-selections "Boundary Conditions*Table1*List2(Zone)" '( 0))
(cx-gui-do cx-activate-item "Boundary Conditions*Table1*List2(Zone)")
(cx-gui-do cx-set-list-selections "Boundary Conditions*Table1*List2(Zone)" '( 2))
(cx-gui-do cx-activate-item "Boundary Conditions*Table1*List2(Zone)")
(cx-gui-do cx-set-list-selections "Boundary Conditions*Table1*List2(Zone)" '( 3))
(cx-gui-do cx-activate-item "Boundary Conditions*Table1*List2(Zone)")
(cx-gui-do cx-set-list-selections "Boundary Conditions*Table1*List2(Zone)" '( 5))
(cx-gui-do cx-activate-item "Boundary Conditions*Table1*List2(Zone)")
(cx-gui-do cx-set-list-selections "Boundary Conditions*Table1*List2(Zone)" '( 4))
(cx-gui-do cx-activate-item "Boundary Conditions*Table1*List2(Zone)")
(cx-use-window-id 51)
(cx-set-camera-relative '(0.00516142 -0.0888486 0.280517) '(0 0 0) '(-0.204244 0.0953586 -0.190209) 0 0)
(cx-use-window-id 51)
(handle-key "control ??")
(cx-use-window-id 51)
(dolly-camera 0.0199087 0.00681819 0)
(cx-use-window-id 51)
(cx-set-camera-relative '(-0.00678739 0.00104215 -0.00964696) '(0 0 0) '(0.0588927 -0.0235178 0.104798) 0 0)
(cx-use-window-id 51)
(cxg-clear-all-selections (cx-active-window))
(cxg-add-surfaces-to-selection '(inlet_propellant) (cx-active-window))
(cx-use-window-id 51)
(cx-set-camera-relative '(-0.0184054 0.00958402 -0.235201) '(0 0 0) '(-0.122177 0.0241706 0.0241589) 0 0)
(cx-use-window-id 51)
(handle-key "control ??")
(cx-use-window-id 51)
(dolly-camera 0.00956351 0.0135887 0)
(cx-use-window-id 51)
(handle-key "control ??")
(cx-use-window-id 51)
(dolly-camera 0.014627 0.0218143 0)
(cx-use-window-id 51)
(cxg-clear-all-selections (cx-active-window))
(cxg-add-surfaces-to-selection '(zone8fl_maelstrom_double_inlet_area.step-volume:1 inlet_negx) (cx-active-window))
(cx-use-window-id 51)
(cxg-clear-all-selections (cx-active-window))
(cxg-add-surfaces-to-selection '(zone8fl_maelstrom_double_inlet_area.step-volume:1) (cx-active-window))
(cx-use-window-id 51)
(cx-use-window-id 51)
(cx-set-camera-relative '(0.0306557 0.0609261 0.28085) '(0 0 0) '(0.328229 -0.108925 -0.0386021) 0 0)
(cx-use-window-id 51)
(cxg-clear-all-selections (cx-active-window))
(cxg-add-surfaces-to-selection '(zone8fl_maelstrom_double_inlet_area.step-volume:1) (cx-active-window))
(cx-use-window-id 51)
(cx-gui-do cx-set-list-selections "Boundary Conditions*Table1*List2(Zone)" '( 5))
(cx-gui-do cx-activate-item "Boundary Conditions*Table1*List2(Zone)")
(cx-use-window-id 51)
(cx-gui-do cx-activate-item "Quick Edit*Table1*PushButton4(icon_close)")
(cx-use-window-id 51)
(cx-use-window-id 51)
(cxg-clear-all-selections (cx-active-window))
(cxg-add-surfaces-to-selection '(zone8fl_maelstrom_double_inlet_area.step-volume:1) (cx-active-window))
(cx-gui-do cx-activate-item "Quick Edit*Table1*PushButton4(icon_close)")
(cx-gui-do cx-set-list-selections "Boundary Conditions*Table1*List2(Zone)" '( 7))
(cx-gui-do cx-activate-item "Boundary Conditions*Table1*List2(Zone)")
(cx-gui-do cx-set-list-selections "Boundary Conditions*Table1*Table3*DropDownList2(Type)" '( 15))
(cx-gui-do cx-activate-item "Boundary Conditions*Table1*Table3*DropDownList2(Type)")

 Zone not slit.(cx-gui-do cx-activate-tab-index "Wall*Frame4" 0)
(cx-gui-do cx-activate-tab-index "Wall*Frame4" 1)
(cx-gui-do cx-activate-tab-index "Wall*Frame4" 0)
(cx-gui-do cx-activate-tab-index "Wall*Frame4" 2)
(cx-gui-do cx-activate-tab-index "Wall*Frame4" 0)
(cx-gui-do cx-activate-tab-index "Wall*Frame4" 3)
(cx-gui-do cx-activate-tab-index "Wall*Frame4" 0)
(cx-gui-do cx-activate-tab-index "Wall*Frame4" 4)
(cx-gui-do cx-activate-tab-index "Wall*Frame4" 0)
(cx-gui-do cx-activate-tab-index "Wall*Frame4" 5)
(cx-gui-do cx-activate-tab-index "Wall*Frame4" 0)
(cx-gui-do cx-activate-tab-index "Wall*Frame4" 6)
(cx-gui-do cx-activate-tab-index "Wall*Frame4" 0)
(cx-gui-do cx-activate-tab-index "Wall*Frame4" 7)
(cx-gui-do cx-activate-tab-index "Wall*Frame4" 0)
(cx-gui-do cx-activate-tab-index "Wall*Frame4" 8)
(cx-gui-do cx-activate-tab-index "Wall*Frame4" 0)
(cx-gui-do cx-activate-tab-index "Wall*Frame4" 9)
(cx-gui-do cx-activate-tab-index "Wall*Frame4" 0)
(cx-gui-do cx-activate-tab-index "Wall*Frame4" 10)
(cx-gui-do cx-activate-tab-index "Wall*Frame4" 0)
(cx-gui-do cx-activate-tab-index "Wall*Frame4*Frame8(Wall Film)*Frame1*Frame2" 0)
(cx-gui-do cx-activate-tab-index "Wall*Frame4*Frame8(Wall Film)*Frame1*Frame2" 1)
(cx-gui-do cx-activate-tab-index "Wall*Frame4*Frame8(Wall Film)*Frame1*Frame2" 0)
(cx-gui-do cx-activate-tab-index "Wall*Frame4*Frame8(Wall Film)*Frame1*Frame2" 2)
(cx-gui-do cx-activate-tab-index "Wall*Frame4*Frame8(Wall Film)*Frame1*Frame2" 0)
(cx-gui-do cx-activate-tab-index "Wall*Frame4*Frame8(Wall Film)*Frame1*Frame2" 3)
(cx-gui-do cx-activate-tab-index "Wall*Frame4*Frame8(Wall Film)*Frame1*Frame2" 0)
(cx-gui-do cx-activate-tab-index "Wall*Frame4*Frame8(Wall Film)*Frame1*Frame2" 4)
(cx-gui-do cx-activate-tab-index "Wall*Frame4*Frame8(Wall Film)*Frame1*Frame2" 0)
(cx-gui-do cx-activate-tab-index "Wall*Frame4*Frame8(Wall Film)*Frame1*Frame2" 5)
(cx-gui-do cx-activate-tab-index "Wall*Frame4*Frame8(Wall Film)*Frame1*Frame2" 0)
(cx-use-window-id 51)
(cx-set-camera-relative '(0 0 0) '(0 0 0) '(0 0 0) 0 0)
(cx-gui-do cx-enable-apply-button "Wall")
(cx-use-window-id 51)
(cx-set-camera-relative '(-0.0247391 -0.00646732 -0.0483025) '(0 0 0) '(-0.0594623 0.0272564 0.02463) 0 0)
(cx-gui-do cx-activate-item "Wall*PanelButtons*PushButton2(Cancel)")
(cx-use-window-id 51)
(cx-use-window-id 51)
(cxg-clear-all-selections (cx-active-window))
(cxg-add-surfaces-to-selection '(inlet_negx) (cx-active-window))
(cx-use-window-id 51)
(cx-set-camera-relative '(0.0921798 0.143416 -0.104508) '(0 0 0) '(0.366974 -0.295839 -0.0231094) 0 0)
(cx-use-window-id 51)
(cx-set-camera-relative '(-0.0703033 -0.0722182 0.0141182) '(0 0 0) '(-0.214874 0.212312 -0.208977) 0 0)
(cx-use-window-id 51)
(handle-key "control ??")
(cx-use-window-id 51)
(dolly-camera 0.0171216 -0.0253318 0)
(cx-use-window-id 51)
(cx-set-camera-relative '(0.0795442 0.077471 0.0162251) '(0 0 0) '(0.228364 -0.230237 -0.0195117) 0 0)
(cx-use-window-id 51)
(cxg-clear-all-selections (cx-active-window))
(cxg-add-surfaces-to-selection '(inlet_plusy) (cx-active-window))
(cx-use-window-id 51)
(cx-set-camera-relative '(0.0530247 -0.570755 0.162632) '(0 0 0) '(-1.29771 0.0987315 0.658868) 0 0)
(cx-use-window-id 51)
(handle-key "control ??")
(cx-use-window-id 51)
(dolly-camera 0.0182293 0.0228069 0)
(cx-use-window-id 51)
(cx-set-camera-relative '(-0.179452 0.253355 -0.0478308) '(0 0 0) '(0.517118 0.305096 -0.369993) 0 0)
(cx-gui-do cx-set-list-selections "Boundary Conditions*Table1*List2(Zone)" '( 2))
(cx-gui-do cx-activate-item "Boundary Conditions*Table1*List2(Zone)")
(cx-gui-do cx-set-list-selections "Boundary Conditions*Table1*List2(Zone)" '( 0))
(cx-gui-do cx-activate-item "Boundary Conditions*Table1*List2(Zone)")
(cx-gui-do cx-activate-item "Boundary Conditions*Table1*Table3*Table4*ButtonBox1*PushButton1(Edit)")
(cx-gui-do cx-activate-tab-index "Mass-Flow Inlet*Frame2*Frame2" 0)
(cx-gui-do cx-activate-tab-index "Mass-Flow Inlet*Frame2*Frame2" 1)
(cx-gui-do cx-activate-tab-index "Mass-Flow Inlet*Frame2*Frame2" 0)
(cx-gui-do cx-activate-tab-index "Mass-Flow Inlet*Frame2*Frame2" 2)
(cx-gui-do cx-activate-tab-index "Mass-Flow Inlet*Frame2*Frame2" 0)
(cx-gui-do cx-activate-tab-index "Mass-Flow Inlet*Frame2*Frame2" 3)
(cx-gui-do cx-activate-tab-index "Mass-Flow Inlet*Frame2*Frame2" 0)
(cx-gui-do cx-activate-tab-index "Mass-Flow Inlet*Frame2*Frame2" 4)
(cx-gui-do cx-activate-tab-index "Mass-Flow Inlet*Frame2*Frame2" 0)
(cx-gui-do cx-activate-tab-index "Mass-Flow Inlet*Frame2*Frame2" 5)
(cx-gui-do cx-activate-tab-index "Mass-Flow Inlet*Frame2*Frame2" 0)
(cx-gui-do cx-activate-tab-index "Mass-Flow Inlet*Frame2*Frame2" 6)
(cx-gui-do cx-activate-tab-index "Mass-Flow Inlet*Frame2*Frame2" 0)
(cx-gui-do cx-activate-tab-index "Mass-Flow Inlet*Frame2*Frame2" 7)
(cx-gui-do cx-activate-tab-index "Mass-Flow Inlet*Frame2*Frame2" 0)
(cx-gui-do cx-activate-tab-index "Mass-Flow Inlet*Frame2*Frame2" 8)
(cx-gui-do cx-activate-tab-index "Mass-Flow Inlet*Frame2*Frame2" 0)
(cx-gui-do cx-activate-item "Mass-Flow Inlet*PanelButtons*PushButton2(Cancel)")
(cx-gui-do cx-set-list-tree-selections "NavigationPane*Frame2*Table1*List_Tree2" (list "Setup|General"))
(cx-gui-do cx-set-list-tree-selections "NavigationPane*Frame2*Table1*List_Tree2" (list "Setup|General"))
(cx-gui-do cx-activate-item "NavigationPane*Frame2*Table1*List_Tree2")
(cx-gui-do cx-set-list-tree-selections "NavigationPane*Frame2*Table1*List_Tree2" (list "Setup|General"))
(cx-gui-do cx-set-list-tree-selections "NavigationPane*Frame2*Table1*List_Tree2" (list "Setup|General"))
(cx-use-window-id 51)
(cx-use-window-id 51)
(cx-set-camera-relative '(0.0723284 0.0116734 0.109437) '(0 0 0) '(0.120401 -0.0101441 -0.00249135) 0 0)
(cx-use-window-id 51)
(cx-use-window-id 51)
(cx-set-camera-relative '(0.0267405 0.0961382 0.00643234) '(0 0 0) '(0.224632 -0.0470682 -0.230079) 0 0)
(cx-use-window-id 51)
(cx-gui-do cx-set-list-tree-selections "NavigationPane*Frame2*Table1*List_Tree2" (list "Setup|Materials|Fluid|air"))
(cx-gui-do cx-set-list-tree-selections "NavigationPane*Frame2*Table1*List_Tree2" (list "Setup|Materials|Fluid|air"))
(cx-gui-do cx-list-tree-right-click "NavigationPane*Frame2*Table1*List_Tree2" )
(cx-gui-do cx-activate-item "MenuBar*PopupMenuTree-air*Edit...")
(cx-gui-do cx-activate-item "Create/Edit Materials*PanelButtons*PushButton1(Close)")
(cx-gui-do cx-set-list-tree-selections "NavigationPane*Frame2*Table1*List_Tree2" (list "Setup|Models|Viscous (Realizable k-e, Standard Wall Fn)"))
(cx-gui-do cx-set-list-tree-selections "NavigationPane*Frame2*Table1*List_Tree2" (list "Setup|Models|Viscous (Realizable k-e, Standard Wall Fn)"))
(cx-gui-do cx-activate-item "NavigationPane*Frame2*Table1*List_Tree2")
(cx-gui-do cx-set-list-tree-selections "NavigationPane*Frame2*Table1*List_Tree2" (list "Setup|Models|Viscous (Realizable k-e, Standard Wall Fn)"))
(cx-gui-do cx-activate-item "Viscous Model*PanelButtons*PushButton2(Cancel)")
(cx-use-window-id 51)
(cx-use-window-id 51)
(cx-set-camera-relative '(-0.0520356 0.0582577 -0.142589) '(0 0 0) '(0.0926786 -0.0950626 -0.248163) 0 0)
(cx-use-window-id 51)
(cx-set-camera-relative '(-0.0193802 -0.0708511 0.0423416) '(0 0 0) '(-0.290713 0.125414 0.0732523) 0 0)
(cx-gui-do cx-set-list-tree-selections "NavigationPane*Frame2*Table1*List_Tree2" (list "Setup|Cell Zone Conditions|Fluid|zone8fl_maelstrom_double_inlet_area.step-volume (fluid, id=872)"))
(cx-gui-do cx-set-list-tree-selections "NavigationPane*Frame2*Table1*List_Tree2" (list "Setup|Cell Zone Conditions|Fluid|zone8fl_maelstrom_double_inlet_area.step-volume (fluid, id=872)"))
(cx-gui-do cx-activate-item "NavigationPane*Frame2*Table1*List_Tree2")
(cx-gui-do cx-set-list-tree-selections "NavigationPane*Frame2*Table1*List_Tree2" (list "Setup|Cell Zone Conditions|Fluid|zone8fl_maelstrom_double_inlet_area.step-volume (fluid, id=872)"))
(cx-gui-do cx-activate-tab-index "Fluid*Frame2*Table3*Frame1" 0)
(cx-gui-do cx-activate-tab-index "Fluid*Frame2*Table3*Frame1" 1)
(cx-gui-do cx-activate-tab-index "Fluid*Frame2*Table3*Frame1" 0)
(cx-gui-do cx-activate-tab-index "Fluid*Frame2*Table3*Frame1" 2)
(cx-gui-do cx-activate-tab-index "Fluid*Frame2*Table3*Frame1" 0)
(cx-gui-do cx-activate-tab-index "Fluid*Frame2*Table3*Frame1" 2)
(cx-gui-do cx-activate-tab-index "Fluid*Frame2*Table3*Frame1" 0)
(cx-gui-do cx-activate-tab-index "Fluid*Frame2*Table3*Frame1" 3)
(cx-gui-do cx-activate-tab-index "Fluid*Frame2*Table3*Frame1" 0)
(cx-gui-do cx-activate-tab-index "Fluid*Frame2*Table3*Frame1" 4)
(cx-gui-do cx-activate-tab-index "Fluid*Frame2*Table3*Frame1" 0)
(cx-gui-do cx-activate-tab-index "Fluid*Frame2*Table3*Frame1" 5)
(cx-gui-do cx-activate-tab-index "Fluid*Frame2*Table3*Frame1" 0)
(cx-gui-do cx-activate-tab-index "Fluid*Frame2*Table3*Frame1" 6)
(cx-gui-do cx-activate-tab-index "Fluid*Frame2*Table3*Frame1" 0)
(cx-gui-do cx-activate-tab-index "Fluid*Frame2*Table3*Frame1" 7)
(cx-gui-do cx-activate-tab-index "Fluid*Frame2*Table3*Frame1" 0)
(cx-gui-do cx-activate-tab-index "Fluid*Frame2*Table3*Frame1" 8)
(cx-gui-do cx-activate-tab-index "Fluid*Frame2*Table3*Frame1" 0)
(cx-gui-do cx-activate-item "Fluid*PanelButtons*PushButton2(Cancel)")
(cx-gui-do cx-set-list-tree-selections "NavigationPane*Frame2*Table1*List_Tree2" (list "Setup|Boundary Conditions"))
(cx-gui-do cx-set-list-tree-selections "NavigationPane*Frame2*Table1*List_Tree2" (list "Setup|Boundary Conditions"))
(cx-gui-do cx-activate-item "NavigationPane*Frame2*Table1*List_Tree2")
(cx-gui-do cx-set-list-tree-selections "NavigationPane*Frame2*Table1*List_Tree2" (list "Setup|Boundary Conditions"))
(cx-use-window-id 51)
(cx-set-camera-relative '(0.173205 -0.116696 -0.515115) '(0 0 0) '(-0.172022 0.0423455 0.203392) 0 0)
(cx-use-window-id 51)
(cxg-clear-all-selections (cx-active-window))
(cxg-add-surfaces-to-selection '(outlet) (cx-active-window))
(cx-gui-do cx-activate-item "Quick Edit*Table1*PushButton4(icon_close)")
(cx-use-window-id 51)
(cx-use-window-id 51)
(cx-set-camera-relative '(5.60284e-05 -0.127376 0.0299753) '(0 0 0) '(-0.362192 -0.0856465 -0.156377) 0 0)
(cx-use-window-id 51)
(cx-set-camera-relative '(-0.00155321 0.0310197 -0.0112689) '(0 0 0) '(0.0544923 0.0308214 0.0695673) 0 0)
(cx-gui-do cx-set-list-selections "Boundary Conditions*Table1*List2(Zone)" '( 6))
(cx-gui-do cx-activate-item "Boundary Conditions*Table1*List2(Zone)")
(cx-gui-do cx-activate-item "Boundary Conditions*Table1*Table3*Table4*ButtonBox1*PushButton1(Edit)")
(cx-gui-do cx-activate-tab-index "Pressure Outlet*Frame2*Frame2" 0)
(cx-gui-do cx-activate-tab-index "Pressure Outlet*Frame2*Frame2" 1)
(cx-gui-do cx-activate-tab-index "Pressure Outlet*Frame2*Frame2" 0)
(cx-gui-do cx-activate-tab-index "Pressure Outlet*Frame2*Frame2" 2)
(cx-gui-do cx-activate-tab-index "Pressure Outlet*Frame2*Frame2" 0)
(cx-gui-do cx-activate-tab-index "Pressure Outlet*Frame2*Frame2" 3)
(cx-gui-do cx-activate-tab-index "Pressure Outlet*Frame2*Frame2" 0)
(cx-gui-do cx-activate-tab-index "Pressure Outlet*Frame2*Frame2" 4)
(cx-gui-do cx-activate-tab-index "Pressure Outlet*Frame2*Frame2" 0)
(cx-gui-do cx-activate-tab-index "Pressure Outlet*Frame2*Frame2" 5)
(cx-gui-do cx-activate-tab-index "Pressure Outlet*Frame2*Frame2" 0)
(cx-gui-do cx-activate-tab-index "Pressure Outlet*Frame2*Frame2" 6)
(cx-gui-do cx-activate-tab-index "Pressure Outlet*Frame2*Frame2" 0)
(cx-gui-do cx-activate-tab-index "Pressure Outlet*Frame2*Frame2" 7)
(cx-gui-do cx-activate-tab-index "Pressure Outlet*Frame2*Frame2" 0)
(cx-gui-do cx-activate-tab-index "Pressure Outlet*Frame2*Frame2" 8)
(cx-gui-do cx-activate-tab-index "Pressure Outlet*Frame2*Frame2" 0)
(cx-gui-do cx-activate-tab-index "Pressure Outlet*Frame2*Frame2" 1)
(cx-gui-do cx-activate-tab-index "Pressure Outlet*Frame2*Frame2" 0)
(cx-gui-do cx-activate-tab-index "Pressure Outlet*Frame2*Frame2" 1)
(cx-gui-do cx-activate-tab-index "Pressure Outlet*Frame2*Frame2" 0)
(cx-gui-do cx-activate-item "Pressure Outlet*PanelButtons*PushButton2(Cancel)")
(cx-gui-do cx-set-list-selections "Boundary Conditions*Table1*Table3*DropDownList2(Type)" '( 6))
(cx-gui-do cx-activate-item "Boundary Conditions*Table1*Table3*DropDownList2(Type)")
(cx-gui-do cx-activate-tab-index "Mass-Flow Outlet*Frame2*Frame2" 0)
(cx-gui-do cx-activate-tab-index "Mass-Flow Outlet*Frame2*Frame2" 1)
(cx-gui-do cx-activate-tab-index "Mass-Flow Outlet*Frame2*Frame2" 0)
(cx-gui-do cx-activate-tab-index "Mass-Flow Outlet*Frame2*Frame2" 2)
(cx-gui-do cx-activate-tab-index "Mass-Flow Outlet*Frame2*Frame2" 0)
(cx-gui-do cx-activate-tab-index "Mass-Flow Outlet*Frame2*Frame2" 3)
(cx-gui-do cx-activate-tab-index "Mass-Flow Outlet*Frame2*Frame2" 0)
(cx-gui-do cx-activate-tab-index "Mass-Flow Outlet*Frame2*Frame2" 4)
(cx-gui-do cx-activate-tab-index "Mass-Flow Outlet*Frame2*Frame2" 0)
(cx-gui-do cx-activate-tab-index "Mass-Flow Outlet*Frame2*Frame2" 5)
(cx-gui-do cx-activate-tab-index "Mass-Flow Outlet*Frame2*Frame2" 0)
(cx-gui-do cx-activate-tab-index "Mass-Flow Outlet*Frame2*Frame2" 6)
(cx-gui-do cx-activate-tab-index "Mass-Flow Outlet*Frame2*Frame2" 0)
(cx-gui-do cx-activate-tab-index "Mass-Flow Outlet*Frame2*Frame2" 7)
(cx-gui-do cx-activate-tab-index "Mass-Flow Outlet*Frame2*Frame2" 0)
(cx-gui-do cx-activate-tab-index "Mass-Flow Outlet*Frame2*Frame2" 8)
(cx-gui-do cx-activate-tab-index "Mass-Flow Outlet*Frame2*Frame2" 0)
(cx-gui-do cx-activate-item "Mass-Flow Outlet*PanelButtons*PushButton2(Cancel)")
(cx-use-window-id 51)
(cx-use-window-id 51)
(cx-set-camera-relative '(-0.0684484 0.14826 0.0416296) '(0 0 0) '(0.269735 0.0311178 0.330448) 0 0)
(cx-use-window-id 51)
(cx-set-camera-relative '(-0.0293713 0.00538018 0.0349235) '(0 0 0) '(0.0337153 -0.00462925 0.0229024) 0 0)
(cx-gui-do cx-set-list-selections "Boundary Conditions*Table1*List2(Zone)" '( 0))
(cx-gui-do cx-activate-item "Boundary Conditions*Table1*List2(Zone)")
(cx-gui-do cx-activate-item "Boundary Conditions*Table1*Table3*Table4*ButtonBox1*PushButton1(Edit)")
(cx-gui-do cx-activate-tab-index "Mass-Flow Inlet*Frame2*Frame2" 1)
(cx-gui-do cx-activate-tab-index "Mass-Flow Inlet*Frame2*Frame2" 0)
(cx-gui-do cx-activate-tab-index "Mass-Flow Inlet*Frame2*Frame2" 1)
(cx-gui-do cx-activate-tab-index "Mass-Flow Inlet*Frame2*Frame2" 0)
(cx-gui-do cx-activate-item "Mass-Flow Inlet*PanelButtons*PushButton2(Cancel)")
(cx-gui-do cx-set-list-selections "Boundary Conditions*Table1*Table3*DropDownList2(Type)" '( 7))
(cx-gui-do cx-activate-item "Boundary Conditions*Table1*Table3*DropDownList2(Type)")
Warning: The use of outflow boundary condition is not appropriate for
         a compressible flow problem. Please change the zone
         types of all outflow boundaries.

(cx-gui-do cx-set-expression-entry "Outflow*Table2*ExpressionEntry9(Flow Rate Weighting)" '("1" . 0))
(cx-gui-do cx-activate-item "Outflow*PanelButtons*PushButton2(Cancel)")
(cx-gui-do cx-set-list-selections "Boundary Conditions*Table1*Table3*DropDownList2(Type)" '( 6))
(cx-gui-do cx-activate-item "Boundary Conditions*Table1*Table3*DropDownList2(Type)")
(cx-gui-do cx-activate-tab-index "Mass-Flow Outlet*Frame2*Frame2" 0)
(cx-gui-do cx-activate-tab-index "Mass-Flow Outlet*Frame2*Frame2" 1)
(cx-gui-do cx-activate-tab-index "Mass-Flow Outlet*Frame2*Frame2" 0)
(cx-gui-do cx-activate-tab-index "Mass-Flow Outlet*Frame2*Frame2" 2)
(cx-gui-do cx-activate-tab-index "Mass-Flow Outlet*Frame2*Frame2" 0)
(cx-gui-do cx-activate-tab-index "Mass-Flow Outlet*Frame2*Frame2" 3)
(cx-gui-do cx-activate-tab-index "Mass-Flow Outlet*Frame2*Frame2" 0)
(cx-gui-do cx-activate-tab-index "Mass-Flow Outlet*Frame2*Frame2" 4)
(cx-gui-do cx-activate-tab-index "Mass-Flow Outlet*Frame2*Frame2" 0)
(cx-gui-do cx-activate-tab-index "Mass-Flow Outlet*Frame2*Frame2" 5)
(cx-gui-do cx-activate-tab-index "Mass-Flow Outlet*Frame2*Frame2" 0)
(cx-gui-do cx-activate-tab-index "Mass-Flow Outlet*Frame2*Frame2" 6)
(cx-gui-do cx-activate-tab-index "Mass-Flow Outlet*Frame2*Frame2" 0)
(cx-gui-do cx-activate-tab-index "Mass-Flow Outlet*Frame2*Frame2" 7)
(cx-gui-do cx-activate-tab-index "Mass-Flow Outlet*Frame2*Frame2" 0)
(cx-gui-do cx-activate-tab-index "Mass-Flow Outlet*Frame2*Frame2" 8)
(cx-gui-do cx-activate-tab-index "Mass-Flow Outlet*Frame2*Frame2" 0)
(cx-gui-do cx-set-list-selections "Mass-Flow Outlet*Frame2*Frame2*Frame1(Momentum)*Table1*DropDownList7(Mass Flow Specification Method)" '( 1))
(cx-gui-do cx-enable-apply-button "Mass-Flow Outlet")
(cx-gui-do cx-activate-item "Mass-Flow Outlet*Frame2*Frame2*Frame1(Momentum)*Table1*DropDownList7(Mass Flow Specification Method)")
(cx-gui-do cx-set-list-selections "Mass-Flow Outlet*Frame2*Frame2*Frame1(Momentum)*Table1*DropDownList7(Mass Flow Specification Method)" '( 0))
(cx-gui-do cx-activate-item "Mass-Flow Outlet*Frame2*Frame2*Frame1(Momentum)*Table1*DropDownList7(Mass Flow Specification Method)")
(cx-gui-do cx-set-expression-entry "Mass-Flow Outlet*Frame2*Frame2*Frame1(Momentum)*Table1*Table8*ExpressionEntry1(Mass Flow Rate)" '("0.01188" . 0))
(cx-gui-do cx-set-expression-entry "Mass-Flow Outlet*Frame2*Frame2*Frame1(Momentum)*Table1*Table8*ExpressionEntry1(Mass Flow Rate)" '("0.01188" . 0))
(cx-gui-do cx-activate-item "Mass-Flow Outlet*Frame2*Frame2*Frame1(Momentum)*Table1*Table8*ExpressionEntry1(Mass Flow Rate)")
(cx-gui-do cx-set-expression-entry "Mass-Flow Outlet*Frame2*Frame2*Frame1(Momentum)*Table1*Table8*ExpressionEntry1(Mass Flow Rate)" '("0.01188" . 0))
(cx-gui-do cx-activate-item "Mass-Flow Outlet*PanelButtons*PushButton1(OK)")
(cx-gui-do cx-activate-item "Mass-Flow Outlet*PanelButtons*PushButton1(OK)")
(cx-gui-do cx-enable-apply-button "Mass-Flow Outlet")
(cx-gui-do cx-activate-item "Mass-Flow Outlet*PanelButtons*PushButton2(Cancel)")
(cx-gui-do cx-set-list-selections "Boundary Conditions*Table1*List2(Zone)" '( 1))
(cx-gui-do cx-activate-item "Boundary Conditions*Table1*List2(Zone)")
(cx-gui-do cx-set-list-selections "Boundary Conditions*Table1*List2(Zone)" '( 0))
(cx-gui-do cx-activate-item "Boundary Conditions*Table1*List2(Zone)")
(cx-use-window-id 51)
(cx-use-window-id 51)
(cx-use-window-id 51)
(cxg-clear-all-selections (cx-active-window))
(cxg-add-surfaces-to-selection '(inlet_plusy) (cx-active-window))
(cx-gui-do cx-set-expression-entry "Quick Edit*Table1*ExpressionEntry6(Mass Flow Rate)" '("0.01188" . 0))
(cx-gui-do cx-activate-item "Quick Edit*Table1*ExpressionEntry6(Mass Flow Rate)")

The property Mass Flow Rate is modified from 0.1035[kg/s] to 0.01188[kg/s] for following zones 
	 inlet_plusy
(cx-gui-do cx-activate-item "Quick Edit*Table1*PushButton4(icon_close)")
(cx-use-window-id 51)
(cx-use-window-id 51)
(cx-set-camera-relative '(0.087643 0.0749564 -0.0639071) '(0 0 0) '(0.0779811 -0.0343745 0.10358) 0 0)
(cx-use-window-id 51)
(dolly-camera 0.000797629 0.0226849 0)
(cx-use-window-id 51)
(cxg-clear-all-selections (cx-active-window))
(cxg-add-surfaces-to-selection '(inlet_negx) (cx-active-window))
(cx-gui-do cx-set-expression-entry "Quick Edit*Table1*ExpressionEntry6(Mass Flow Rate)" '("0.01188" . 0))
(cx-use-window-id 51)
(cx-gui-do cx-set-expression-entry "Quick Edit*Table1*ExpressionEntry6(Mass Flow Rate)" '("0.01188" . 0))
(cx-gui-do cx-activate-item "Quick Edit*Table1*PushButton4(icon_close)")
(cx-use-window-id 51)
(cxg-clear-all-selections (cx-active-window))
(cxg-add-surfaces-to-selection '(inlet_negy) (cx-active-window))
(cx-gui-do cx-set-expression-entry "Quick Edit*Table1*ExpressionEntry6(Mass Flow Rate)" '("0.01188" . 0))
(cx-gui-do cx-activate-item "Quick Edit*Table1*ExpressionEntry6(Mass Flow Rate)")
(cx-gui-do cx-activate-item "Quick Edit*Table1*PushButton4(icon_close)")

The property Mass Flow Rate is modified from 0.1035[kg/s] to 0.01188[kg/s] for following zones 
	 inlet_negy
(cx-use-window-id 51)
(cx-set-camera-relative '(0.187284 0.054566 -0.0585739) '(0 0 0) '(0.0216268 -0.042097 0.0944113) 0 0)
(cx-use-window-id 51)
(cx-use-window-id 51)
(cx-use-window-id 51)
(cxg-clear-all-selections (cx-active-window))
(cxg-add-surfaces-to-selection '(inlet_plusx) (cx-active-window))
(cx-gui-do cx-set-expression-entry "Quick Edit*Table1*ExpressionEntry6(Mass Flow Rate)" '("0.01188" . 0))
(cx-gui-do cx-activate-item "Quick Edit*Table1*ExpressionEntry6(Mass Flow Rate)")

The property Mass Flow Rate is modified from 0.1035[kg/s] to 0.01188[kg/s] for following zones 
	 inlet_plusx
(cx-gui-do cx-activate-item "Quick Edit*Table1*PushButton4(icon_close)")
(cx-use-window-id 51)
(cx-set-camera-relative '(-0.312132 -0.0240391 0.25693) '(0 0 0) '(0.163647 -0.0176877 -0.0320657) 0 0)
(cx-use-window-id 51)
(cx-set-camera-relative '(0.17108 0.0838782 0.401654) '(0 0 0) '(0.604107 -0.427396 -0.177352) 0 0)
(cx-use-window-id 51)
(cxg-clear-all-selections (cx-active-window))
(cxg-add-surfaces-to-selection '() (cx-active-window))
(cx-use-window-id 51)
(cx-set-camera-relative '(-0.0587685 -0.0065041 -0.0539993) '(0 0 0) '(-0.243741 0.333746 -0.265917) 0 0)
(cx-use-window-id 51)
(handle-key "control ??")
(cx-use-window-id 51)
(dolly-camera 0.0261945 -0.0288173 0)
(cx-use-window-id 51)
(cxg-clear-all-selections (cx-active-window))
(cxg-add-surfaces-to-selection '(inlet_propellant) (cx-active-window))
(cx-gui-do cx-set-expression-entry "Quick Edit*Table1*ExpressionEntry6(Mass Flow Rate)" '("0.02376" . 0))
(cx-gui-do cx-activate-item "Quick Edit*Table1*ExpressionEntry6(Mass Flow Rate)")

The property Mass Flow Rate is modified from 0.23[kg/s] to 0.02376[kg/s] for following zones 
	 inlet_propellant
(cx-gui-do cx-set-expression-entry "Quick Edit*Table1*ExpressionEntry6(Mass Flow Rate)" '("0.02376" . 0))
(cx-gui-do cx-activate-item "Quick Edit*Table1*PushButton4(icon_close)")
(cx-use-window-id 51)
(cx-set-camera-relative '(-0.0907155 -0.156902 -0.151647) '(0 0 0) '(-0.605468 0.21623 0.060814) 0 0)
(cx-use-window-id 51)
(handle-key "control ??")
(cx-use-window-id 51)
(dolly-camera 0.00199708 0.0134123 0)
(cx-use-window-id 51)
(cx-use-window-id 51)
(cxg-clear-all-selections (cx-active-window))
(cxg-add-surfaces-to-selection '(inlet_negy) (cx-active-window))
(cx-gui-do cx-activate-item "Quick Edit*Table1*PushButton4(icon_close)")
(cx-use-window-id 51)
(cx-set-camera-relative '(0.137881 0.11431 -0.238645) '(0 0 0) '(0.256797 -0.0573124 0.174021) 0 0)
(cx-use-window-id 51)
(handle-key "control ??")
(cx-use-window-id 51)
(dolly-camera 0.0100218 0.0235902 0)
(cx-use-window-id 51)
(cxg-clear-all-selections (cx-active-window))
(cxg-add-surfaces-to-selection '() (cx-active-window))
(cx-use-window-id 51)
(cxg-clear-all-selections (cx-active-window))
(cxg-add-surfaces-to-selection '(outlet) (cx-active-window))
(cx-gui-do cx-set-expression-entry "Quick Edit*Table1*ExpressionEntry6(Mass Flow Rate)" '("0.07128" . 0))
(cx-gui-do cx-activate-item "Quick Edit*Table1*ExpressionEntry6(Mass Flow Rate)")
(cx-use-window-id 51)

The property Mass Flow Rate is modified from 0[kg/s] to 0.07128[kg/s] for following zones 
	 outlet
(cx-gui-do cx-set-expression-entry "Quick Edit*Table1*ExpressionEntry6(Mass Flow Rate)" '("0.07128" . 0))
(cx-gui-do cx-activate-item "Quick Edit*Table1*PushButton4(icon_close)")
(cx-use-window-id 51)
(cx-set-camera-relative '(-0.0573719 0.0223722 0.0801358) '(0 0 0) '(0.0419441 -0.020937 0.0340684) 0 0)
(cx-use-window-id 51)
(cx-use-window-id 51)
(cx-gui-do cx-set-list-selections "Boundary Conditions*Table1*List2(Zone)" '( 4))
(cx-gui-do cx-activate-item "Boundary Conditions*Table1*List2(Zone)")
(cx-gui-do cx-set-list-selections "Boundary Conditions*Table1*List2(Zone)" '( 5))
(cx-gui-do cx-activate-item "Boundary Conditions*Table1*List2(Zone)")
(cx-gui-do cx-set-list-tree-selections "NavigationPane*Frame2*Table1*List_Tree2" (list "Setup|Mesh Interfaces"))
(cx-gui-do cx-set-list-tree-selections "NavigationPane*Frame2*Table1*List_Tree2" (list "Setup|Reference Values"))
(cx-gui-do cx-set-list-tree-selections "NavigationPane*Frame2*Table1*List_Tree2" (list "Setup|Reference Values"))
(cx-gui-do cx-activate-item "NavigationPane*Frame2*Table1*List_Tree2")
(cx-gui-do cx-set-list-tree-selections "NavigationPane*Frame2*Table1*List_Tree2" (list "Setup|Reference Values"))
(cx-gui-do cx-set-list-selections "Reference Values*DropDownList1(Compute from)" '( 4))
(cx-gui-do cx-activate-item "Reference Values*DropDownList1(Compute from)")
(cx-gui-do cx-set-list-tree-selections "NavigationPane*Frame2*Table1*List_Tree2" (list "Solution|Methods"))
(cx-gui-do cx-set-list-tree-selections "NavigationPane*Frame2*Table1*List_Tree2" (list "Solution|Methods"))
(cx-gui-do cx-activate-item "NavigationPane*Frame2*Table1*List_Tree2")
(cx-gui-do cx-set-list-tree-selections "NavigationPane*Frame2*Table1*List_Tree2" (list "Solution|Methods"))
(cx-gui-do cx-set-list-tree-selections "NavigationPane*Frame2*Table1*List_Tree2" (list "Solution|Run Calculation"))
(cx-gui-do cx-set-list-tree-selections "NavigationPane*Frame2*Table1*List_Tree2" (list "Solution|Run Calculation"))
(cx-gui-do cx-activate-item "NavigationPane*Frame2*Table1*List_Tree2")
(cx-gui-do cx-set-list-tree-selections "NavigationPane*Frame2*Table1*List_Tree2" (list "Solution|Run Calculation"))
(cx-gui-do cx-set-list-tree-selections "NavigationPane*Frame2*Table1*List_Tree2" (list "Solution|Initialization"))
(cx-gui-do cx-set-list-tree-selections "NavigationPane*Frame2*Table1*List_Tree2" (list "Solution|Initialization"))
(cx-gui-do cx-activate-item "NavigationPane*Frame2*Table1*List_Tree2")
(cx-gui-do cx-set-list-tree-selections "NavigationPane*Frame2*Table1*List_Tree2" (list "Solution|Initialization"))
(cx-gui-do cx-activate-item "Solution Initialization*Table1*Frame12*PushButton2(Initialize)")

Initialize using the hybrid initialization method.

Checking case topology... 
-This case has both inlets & outlets 
-Pressure information is not available at the boundaries.
 Case will be initialized with constant pressure

	iter		scalar-0

	1		1.000000e+00
	2		1.438864e-04
	3		1.456154e-05
	4		4.647802e-06
	5		6.048717e-07
	6		1.326160e-07
	7		2.919604e-08
	8		6.599889e-09
	9		1.513887e-09
	10		3.505315e-10

Hybrid initialization is done.
(cx-gui-do cx-set-list-tree-selections "NavigationPane*Frame2*Table1*List_Tree2" (list "Solution|Calculation Activities"))
(cx-gui-do cx-set-list-tree-selections "NavigationPane*Frame2*Table1*List_Tree2" (list "Solution|Run Calculation"))
(cx-gui-do cx-set-list-tree-selections "NavigationPane*Frame2*Table1*List_Tree2" (list "Solution|Run Calculation"))
(cx-gui-do cx-activate-item "NavigationPane*Frame2*Table1*List_Tree2")
(cx-gui-do cx-set-list-tree-selections "NavigationPane*Frame2*Table1*List_Tree2" (list "Solution|Run Calculation"))
(cx-gui-do cx-set-list-tree-selections "NavigationPane*Frame2*Table1*List_Tree2" (list "Setup|General"))
(cx-gui-do cx-set-list-tree-selections "NavigationPane*Frame2*Table1*List_Tree2" (list "Setup|General"))
(cx-gui-do cx-activate-item "NavigationPane*Frame2*Table1*List_Tree2")
(cx-gui-do cx-set-list-tree-selections "NavigationPane*Frame2*Table1*List_Tree2" (list "Setup|General"))
(cx-gui-do cx-set-toggle-button2 "General*Table1*Table2(Solver)*ButtonBox1(Type)*Pressure-Based" #t)
(cx-gui-do cx-activate-item "General*Table1*Table2(Solver)*ButtonBox1(Type)*Pressure-Based")
(cx-gui-do cx-set-list-tree-selections "NavigationPane*Frame2*Table1*List_Tree2" (list "Solution|Run Calculation"))
(cx-gui-do cx-set-list-tree-selections "NavigationPane*Frame2*Table1*List_Tree2" (list "Solution|Run Calculation"))
(cx-gui-do cx-activate-item "NavigationPane*Frame2*Table1*List_Tree2")
(cx-gui-do cx-set-list-tree-selections "NavigationPane*Frame2*Table1*List_Tree2" (list "Solution|Run Calculation"))
(cx-gui-do cx-set-list-selections "Run Calculation*Table1*Table2(Pseudo Time Settings)*Table1(Fluid Time Scale)*Table1*DropDownList1(Time Step Method)" '( 0))
(cx-gui-do cx-activate-item "Run Calculation*Table1*Table2(Pseudo Time Settings)*Table1(Fluid Time Scale)*Table1*DropDownList1(Time Step Method)")
(cx-gui-do cx-set-list-tree-selections "NavigationPane*Frame2*Table1*List_Tree2" (list "Setup|General"))
(cx-gui-do cx-set-list-tree-selections "NavigationPane*Frame2*Table1*List_Tree2" (list "Setup|General"))
(cx-gui-do cx-set-list-tree-selections "NavigationPane*Frame2*Table1*List_Tree2" (list "Setup|General"))
(cx-gui-do cx-activate-item "NavigationPane*Frame2*Table1*List_Tree2")
(cx-gui-do cx-set-list-tree-selections "NavigationPane*Frame2*Table1*List_Tree2" (list "Setup|General"))
(cx-gui-do cx-set-toggle-button2 "General*Table1*Table2(Solver)*ButtonBox1(Type)*Density-Based" #t)
(cx-gui-do cx-activate-item "General*Table1*Table2(Solver)*ButtonBox1(Type)*Density-Based")
(cx-gui-do cx-set-list-tree-selections "NavigationPane*Frame2*Table1*List_Tree2" (list "Solution|Run Calculation"))
(cx-gui-do cx-set-list-tree-selections "NavigationPane*Frame2*Table1*List_Tree2" (list "Solution|Run Calculation"))
(cx-gui-do cx-activate-item "NavigationPane*Frame2*Table1*List_Tree2")
(cx-gui-do cx-set-list-tree-selections "NavigationPane*Frame2*Table1*List_Tree2" (list "Solution|Run Calculation"))
(cx-gui-do cx-set-list-tree-selections "NavigationPane*Frame2*Table1*List_Tree2" (list "Setup|General"))
(cx-gui-do cx-set-list-tree-selections "NavigationPane*Frame2*Table1*List_Tree2" (list "Setup|General"))
(cx-gui-do cx-activate-item "NavigationPane*Frame2*Table1*List_Tree2")
(cx-gui-do cx-set-list-tree-selections "NavigationPane*Frame2*Table1*List_Tree2" (list "Setup|General"))
(cx-gui-do cx-set-toggle-button2 "General*Table1*Table2(Solver)*ButtonBox1(Type)*Pressure-Based" #t)
(cx-gui-do cx-activate-item "General*Table1*Table2(Solver)*ButtonBox1(Type)*Pressure-Based")
(cx-gui-do cx-set-list-tree-selections "NavigationPane*Frame2*Table1*List_Tree2" (list "Solution|Run Calculation"))
(cx-gui-do cx-set-list-tree-selections "NavigationPane*Frame2*Table1*List_Tree2" (list "Solution|Run Calculation"))
(cx-gui-do cx-activate-item "NavigationPane*Frame2*Table1*List_Tree2")
(cx-gui-do cx-set-list-tree-selections "NavigationPane*Frame2*Table1*List_Tree2" (list "Solution|Run Calculation"))
(cx-gui-do cx-set-list-tree-selections "NavigationPane*Frame2*Table1*List_Tree2" (list "Solution|Initialization"))
(cx-gui-do cx-set-list-tree-selections "NavigationPane*Frame2*Table1*List_Tree2" (list "Results"))
(cx-gui-do cx-set-list-tree-selections "NavigationPane*Frame2*Table1*List_Tree2" (list "Results"))
(cx-gui-do cx-set-list-tree-selections "NavigationPane*Frame2*Table1*List_Tree2" (list "Solution|Run Calculation"))
(cx-gui-do cx-set-list-tree-selections "NavigationPane*Frame2*Table1*List_Tree2" (list "Setup|General"))
(cx-gui-do cx-set-list-tree-selections "NavigationPane*Frame2*Table1*List_Tree2" (list "Setup|General"))
(cx-gui-do cx-activate-item "NavigationPane*Frame2*Table1*List_Tree2")
(cx-gui-do cx-set-list-tree-selections "NavigationPane*Frame2*Table1*List_Tree2" (list "Setup|General"))
(cx-gui-do cx-set-list-tree-selections "NavigationPane*Frame2*Table1*List_Tree2" (list "Solution|Run Calculation"))
(cx-gui-do cx-set-list-tree-selections "NavigationPane*Frame2*Table1*List_Tree2" (list "Solution|Run Calculation"))
(cx-gui-do cx-activate-item "NavigationPane*Frame2*Table1*List_Tree2")
(cx-gui-do cx-set-list-tree-selections "NavigationPane*Frame2*Table1*List_Tree2" (list "Solution|Run Calculation"))
(cx-gui-do cx-set-expression-entry "Run Calculation*Table1*Table2(Pseudo Time Settings)*Table1(Fluid Time Scale)*Table3*ExpressionEntry2(Time Scale Factor)" '("0.75" . 0))
(cx-gui-do cx-activate-item "Run Calculation*Table1*Table2(Pseudo Time Settings)*Table1(Fluid Time Scale)*Table3*ExpressionEntry2(Time Scale Factor)")
(cx-gui-do cx-activate-item "Run Calculation*Table1*Table6(Solution Advancement)*Table1*PushButton1(Calculate)")


  iter  continuity  x-velocity  y-velocity  z-velocity      energy           k     epsilon  outlet_vel  outlet_mas     time/iter
        Stabilizing pressure coupled to enhance linear solver robustness.
        Stabilizing k to enhance linear solver robustness.
        Negative k in 9611 cells after linear solve.
        Negative epsilon in 858 cells after linear solve.
 temperature limited to 1.000000e+00 on 17031 faces
 temperature limited to 5.000000e+03 on 54 faces

 turbulent viscosity limited to viscosity ratio of 1.000000e+05 in 6330 cells 
     1  1.0000e+00  1.2772e-03  1.3249e-03  1.1384e-02  1.6654e+08  1.1195e+05  2.8046e+11  2.8764e+01 -7.1280e-02  1:27:27   99
Warning: boundary Mach number exceeds maximum limit on mass-flow-inlet-31 for 137 faces
bounding Mach number to maximum limit =9.800000e-01
        Stabilizing temperature to enhance linear solver robustness.
 temperature limited to 1.000000e+00 on 16527 faces
 temperature limited to 5.000000e+03 on 124 faces

 turbulent viscosity limited to viscosity ratio of 1.000000e+05 in 5331 cells 
     2  1.0000e+00  9.2651e-03  8.9923e-02  6.9690e-03  2.7116e+07  2.5410e-02  9.6072e-01  2.0261e+02 -7.1280e-02  1:10:34   98
Warning: boundary Mach number exceeds maximum limit on mass-flow-inlet-31 for 137 faces
bounding Mach number to maximum limit =9.800000e-01
        Stabilizing k to enhance linear solver robustness.
        Stabilizing k using GMRES to enhance linear solver robustness.

Divergence detected in AMG solver: k        Stabilizing temperature to enhance linear solver robustness.
 temperature limited to 1.000000e+00 on 16565 faces
 temperature limited to 5.000000e+03 on 248 faces

 turbulent viscosity limited to viscosity ratio of 1.000000e+05 in 9315 cells 

Divergence detected in AMG solver: k
Divergence detected in AMG solver: k
Divergence detected in AMG solver: k
Divergence detected in AMG solver: k
Divergence detected in AMG solver: k
Divergence detected in AMG solver: k
Divergence detected in AMG solver: k
Divergence detected in AMG solver: k
Divergence detected in AMG solver: k
Divergence detected in AMG solver: k
Divergence detected in AMG solver: k
Divergence detected in AMG solver: k
Divergence detected in AMG solver: k
Error at host: floating point exception

Error: floating point exception
Error Object: ()

Error at Node 5: floating point exception

Error at Node 12: floating point exception

Error at Node 4: floating point exception

Error at Node 13: floating point exception

Error at Node 2: floating point exception

Error at Node 3: floating point exception

Error at Node 8: floating point exception

Error at Node 9: floating point exception

Error at Node 7: floating point exception

Error at Node 1: floating point exception

Error at Node 0: floating point exception

Error at Node 11: floating point exception

Error at Node 6: floating point exception

Error at Node 10: floating point exception

Error: floating point exception
Error Object: #f
(cx-gui-do cx-activate-item "Error*OK")
(cx-gui-do cx-set-list-tree-selections "NavigationPane*Frame2*Table1*List_Tree2" (list "Setup|General"))
(cx-gui-do cx-set-list-tree-selections "NavigationPane*Frame2*Table1*List_Tree2" (list "Setup|General"))
(cx-gui-do cx-activate-item "NavigationPane*Frame2*Table1*List_Tree2")
(cx-gui-do cx-set-list-tree-selections "NavigationPane*Frame2*Table1*List_Tree2" (list "Setup|General"))
(cx-gui-do cx-set-toggle-button2 "General*Table1*Table2(Solver)*ButtonBox1(Type)*Density-Based" #t)
(cx-gui-do cx-activate-item "General*Table1*Table2(Solver)*ButtonBox1(Type)*Density-Based")
(cx-gui-do cx-set-list-tree-selections "NavigationPane*Frame2*Table1*List_Tree2" (list "Setup|Curvilinear Coordinate System"))
(cx-gui-do cx-set-list-tree-selections "NavigationPane*Frame2*Table1*List_Tree2" (list "Setup|Curvilinear Coordinate System"))
(cx-gui-do cx-activate-item "NavigationPane*Frame2*Table1*List_Tree2")
(cx-gui-do cx-set-list-tree-selections "NavigationPane*Frame2*Table1*List_Tree2" (list "Setup|Curvilinear Coordinate System"))
(cx-gui-do cx-activate-tab-index "Curvilinear Coordinate System*Frame7(Dir0 Tab)" 0)
(cx-gui-do cx-activate-tab-index "Curvilinear Coordinate System*Frame7(Dir0 Tab)" 1)
(cx-gui-do cx-activate-tab-index "Curvilinear Coordinate System*Frame7(Dir0 Tab)" 0)
(cx-gui-do cx-activate-item "Curvilinear Coordinate System*PanelButtons*PushButton1(Close)")
(cx-gui-do cx-set-list-tree-selections "NavigationPane*Frame2*Table1*List_Tree2" (list "Solution|Run Calculation"))
(cx-gui-do cx-set-list-tree-selections "NavigationPane*Frame2*Table1*List_Tree2" (list "Solution|Run Calculation"))
(cx-gui-do cx-activate-item "NavigationPane*Frame2*Table1*List_Tree2")
(cx-gui-do cx-set-list-tree-selections "NavigationPane*Frame2*Table1*List_Tree2" (list "Solution|Run Calculation"))
(cx-gui-do cx-activate-item "Run Calculation*Table1*Table6(Solution Advancement)*Table1*PushButton1(Calculate)")


  iter  continuity  x-velocity  y-velocity  z-velocity      energy           k     epsilon  outlet_vel  outlet_mas     time/iter

 turbulent viscosity limited to viscosity ratio of 1.000000e+05 in 9315 cells 
     2  1.0000e+00  9.2651e-03  8.9923e-02  6.9690e-03  2.7116e+07  2.5410e-02  9.6072e-01  2.0261e+02 -7.1280e-02  1:12:00  100

Error at Node 3: Divergence detected in AMG solver

Error at Node 2: Divergence detected in AMG solver

Error at Node 10: Divergence detected in AMG solver

Error at Node 13: Divergence detected in AMG solver

Error at Node 11: Divergence detected in AMG solver

Error at Node 12: Divergence detected in AMG solver

Error at Node 9: Divergence detected in AMG solver


Error at Node 5: Divergence detected in AMG solverError
: 
Error at Node 4: Divergence detected in AMG solvererror: wta[1](string)


Error at Node 1: Divergence detected in AMG solverError
 Object: 
Error at Node 7: Divergence detected in AMG solver()


Error at Node 6: Divergence detected in AMG solver

 reversed flow in 65 faces on mass-flow-inlet 28.

 reversed flow in 90 faces on mass-flow-inlet 30.
<warning>Warning: boundary Mach number exceeds maximum limit on mass-flow-inlet-31 on 137 faces
</warning><warning>bounding Mach number to maximum limit =9.800000e-01
</warning>
Divergence detected - temporarily reducing Courant number to 0.5
 and trying again...

Divergence detected - temporarily reducing Courant number to 0.05
 and trying again...

Divergence detected - temporarily reducing Courant number to 0.005
 and trying again...

Divergence detected - temporarily reducing Courant number to 0.0005
 and trying again...
        Stabilizing Coupled to enhance linear solver robustness.
        Stabilizing Coupled using GMRES to enhance linear solver robustness.

Divergence detected - temporarily reducing Courant number to 5e-05
 and trying again...
        Stabilizing Coupled to enhance linear solver robustness.
        Stabilizing Coupled using GMRES to enhance linear solver robustness.

Error at Node 0: Divergence detected in AMG solver

Error at Node 8: Divergence detected in AMG solver
Interrupting client...
Done.
(cx-gui-do cx-set-list-tree-selections "NavigationPane*Frame2*Table1*List_Tree2" (list "Solution|Calculation Activities"))
(cx-gui-do cx-set-list-tree-selections "NavigationPane*Frame2*Table1*List_Tree2" (list "Solution|Initialization"))
(cx-gui-do cx-set-list-tree-selections "NavigationPane*Frame2*Table1*List_Tree2" (list "Solution|Initialization"))
(cx-gui-do cx-activate-item "NavigationPane*Frame2*Table1*List_Tree2")
(cx-gui-do cx-set-list-tree-selections "NavigationPane*Frame2*Table1*List_Tree2" (list "Solution|Initialization"))
(cx-gui-do cx-activate-item "Solution Initialization*Table1*Frame12*PushButton2(Initialize)")
(cx-gui-do cx-activate-item "Question*OK")

Initialize using the hybrid initialization method.

Checking case topology... 
-This case has both inlets & outlets 
-Pressure information is not available at the boundaries.
 Case will be initialized with constant pressure

	iter		scalar-0

	1		1.000000e+00
	2		1.437950e-04
	3		1.455957e-05
	4		4.597508e-06
	5		6.050655e-07
	6		1.323483e-07
	7		2.903463e-08
	8		6.516067e-09
	9		1.485792e-09
	10		3.425422e-10

Hybrid initialization is done.
(cx-gui-do cx-set-list-tree-selections "NavigationPane*Frame2*Table1*List_Tree2" (list "Solution|Run Calculation"))
(cx-gui-do cx-set-list-tree-selections "NavigationPane*Frame2*Table1*List_Tree2" (list "Solution|Run Calculation"))
(cx-gui-do cx-activate-item "NavigationPane*Frame2*Table1*List_Tree2")
(cx-gui-do cx-set-list-tree-selections "NavigationPane*Frame2*Table1*List_Tree2" (list "Solution|Run Calculation"))
(cx-gui-do cx-activate-item "Run Calculation*Table1*Table6(Solution Advancement)*Table1*PushButton1(Calculate)")

(cx-gui-do cx-activate-item "Question*Cancel")
(cx-gui-do cx-activate-item "Question*OK")
Overwriting "C:\Users\.plain\Documents\MATLAB\MAE 185\UCSDMAE185-FN\.\\outlet_velocity-rfile.out"  of Report File "outlet_velocity-rfile"
Overwriting "C:\Users\.plain\Documents\MATLAB\MAE 185\UCSDMAE185-FN\.\\outlet_mass-flow-rate-rfile.out"  of Report File "outlet_mass-flow-rate-rfile"

  iter  continuity  x-velocity  y-velocity  z-velocity      energy           k     epsilon  outlet_vel  outlet_mas     time/iter
     1  1.0000e+00  1.0000e+00  1.0000e+00  1.0000e+00  1.0000e+00  1.7488e-01  5.5869e-01  2.8502e+01 -7.0430e-02  0:57:41   99
     2  6.4326e-01  5.0030e-01  5.0966e-01  5.4518e-01  6.1089e-01  7.8197e-02  2.7355e-01  2.8422e+01 -7.0159e-02  0:46:20   98
     3  4.7439e-01  3.8329e-01  3.9613e-01  4.2153e-01  4.3653e-01  5.6273e-02  1.9444e-01  2.8375e+01 -7.0021e-02  0:37:20   97
     4  4.0470e-01  3.1776e-01  3.2346e-01  3.7551e-01  3.7153e-01  4.7672e-02  1.4953e-01  2.8402e+01 -7.0102e-02  0:30:12   96
     5  3.9538e-01  2.7591e-01  2.7642e-01  3.3360e-01  3.6901e-01  4.3388e-02  1.2069e-01  2.8462e+01 -7.0280e-02  0:24:33   95
     6  4.1432e-01  2.4551e-01  2.4393e-01  2.9780e-01  3.9237e-01  4.0510e-02  1.0213e-01  2.8528e+01 -7.0480e-02  0:20:03   94
     7  4.3849e-01  2.2343e-01  2.2226e-01  2.7407e-01  4.1855e-01  3.8110e-02  8.9064e-02  2.8589e+01 -7.0661e-02  0:16:30   93
     8  4.5526e-01  2.0649e-01  2.0644e-01  2.6588e-01  4.3601e-01  3.5817e-02  7.8585e-02  2.8639e+01 -7.0811e-02  0:13:40   92
     9  4.5483e-01  1.9236e-01  1.9312e-01  2.5229e-01  4.3614e-01  3.3652e-02  7.0067e-02  2.8675e+01 -7.0912e-02  0:11:07   91
    10  4.3899e-01  1.7934e-01  1.8068e-01  2.3875e-01  4.2088e-01  3.2033e-02  6.3199e-02  2.8697e+01 -7.0969e-02  0:09:42   90
    11  4.0964e-01  1.6616e-01  1.6718e-01  2.2783e-01  3.9200e-01  3.1088e-02  5.7529e-02  2.8722e+01 -7.1022e-02  0:08:16   89

  iter  continuity  x-velocity  y-velocity  z-velocity      energy           k     epsilon  outlet_vel  outlet_mas     time/iter
    12  3.7228e-01  1.5313e-01  1.5370e-01  2.1525e-01  3.5527e-01  3.0648e-02  5.2894e-02  2.8750e+01 -7.1073e-02  0:07:07   88
    13  3.3706e-01  1.4073e-01  1.4162e-01  2.0216e-01  3.2082e-01  3.0458e-02  4.9243e-02  2.8781e+01 -7.1124e-02  0:06:13   87
    14  3.1283e-01  1.2950e-01  1.3106e-01  1.9069e-01  2.9703e-01  3.0411e-02  4.6278e-02  2.8816e+01 -7.1182e-02  0:05:12   86
    15  2.9894e-01  1.1953e-01  1.2184e-01  1.8031e-01  2.8334e-01  3.0399e-02  4.3755e-02  2.8854e+01 -7.1244e-02  0:04:41   85
    16  2.9229e-01  1.1107e-01  1.1404e-01  1.7123e-01  2.7687e-01  3.0416e-02  4.1541e-02  2.8891e+01 -7.1308e-02  0:04:16   84
    17  2.8930e-01  1.0451e-01  1.0782e-01  1.6291e-01  2.7417e-01  3.0544e-02  3.9559e-02  2.8925e+01 -7.1372e-02  0:03:55   83
    18  2.8633e-01  9.9484e-02  1.0278e-01  1.5532e-01  2.7163e-01  3.0482e-02  3.7675e-02  2.8954e+01 -7.1435e-02  0:03:39   82
    19  2.8069e-01  9.5455e-02  9.8526e-02  1.4904e-01  2.6653e-01  3.0294e-02  3.5772e-02  2.8978e+01 -7.1495e-02  0:03:25   81
    20  2.7170e-01  9.2032e-02  9.4803e-02  1.4412e-01  2.5807e-01  3.0063e-02  3.4021e-02  2.8995e+01 -7.1552e-02  0:03:14   80
    21  2.5976e-01  8.8939e-02  9.1450e-02  1.4034e-01  2.4659e-01  2.9798e-02  3.2477e-02  2.9006e+01 -7.1601e-02  0:03:05   79
    22  2.4580e-01  8.6056e-02  8.8371e-02  1.3708e-01  2.3298e-01  2.9359e-02  3.1028e-02  2.9013e+01 -7.1646e-02  0:02:57   78

  iter  continuity  x-velocity  y-velocity  z-velocity      energy           k     epsilon  outlet_vel  outlet_mas     time/iter
    23  2.3139e-01  8.3396e-02  8.5563e-02  1.3411e-01  2.1882e-01  2.8758e-02  2.9610e-02  2.9018e+01 -7.1675e-02  0:02:51   77
    24  2.1828e-01  8.1000e-02  8.3074e-02  1.3119e-01  2.0587e-01  2.8042e-02  2.8403e-02  2.9018e+01 -7.1680e-02  0:02:45   76
    25  2.0810e-01  7.8846e-02  8.0937e-02  1.2823e-01  1.9580e-01  2.7215e-02  2.7449e-02  2.9016e+01 -7.1653e-02  0:02:25   75
    26  2.0206e-01  7.6898e-02  7.9040e-02  1.2520e-01  1.8984e-01  2.6352e-02  2.6465e-02  2.9016e+01 -7.1599e-02  0:02:24   74
    27  2.0063e-01  7.5075e-02  7.7269e-02  1.2223e-01  1.8852e-01  2.5658e-02  2.5393e-02  2.9023e+01 -7.1527e-02  0:02:23   73
    28  2.0349e-01  7.3203e-02  7.5493e-02  1.1940e-01  1.9146e-01  2.5093e-02  2.4252e-02  2.9042e+01 -7.1449e-02  0:02:22   72
    29  2.0976e-01  7.1161e-02  7.3569e-02  1.1697e-01  1.9774e-01  2.4558e-02  2.3232e-02  2.9072e+01 -7.1375e-02  0:02:06   71
    30  2.1841e-01  6.8817e-02  7.1393e-02  1.1503e-01  2.0633e-01  2.3949e-02  2.2428e-02  2.9113e+01 -7.1313e-02  0:02:07   70
    31  2.2837e-01  6.6125e-02  6.8829e-02  1.1364e-01  2.1613e-01  2.3208e-02  2.1682e-02  2.9161e+01 -7.1261e-02  0:02:08   69
    32  2.3835e-01  6.3049e-02  6.5730e-02  1.1273e-01  2.2589e-01  2.2429e-02  2.0985e-02  2.9210e+01 -7.1222e-02  0:02:08   68
    33  2.4747e-01  5.9593e-02  6.2245e-02  1.1217e-01  2.3478e-01  2.1833e-02  2.0529e-02  2.9257e+01 -7.1193e-02  0:02:08   67

  iter  continuity  x-velocity  y-velocity  z-velocity      energy           k     epsilon  outlet_vel  outlet_mas     time/iter
    34  2.5498e-01  5.5837e-02  5.8437e-02  1.1181e-01  2.4207e-01  2.1326e-02  2.0094e-02  2.9299e+01 -7.1175e-02  0:01:54   66
    35  2.5993e-01  5.1998e-02  5.4575e-02  1.1150e-01  2.4686e-01  2.0865e-02  1.9601e-02  2.9335e+01 -7.1167e-02  0:01:56   65
    36  2.6177e-01  4.8368e-02  5.0865e-02  1.1101e-01  2.4858e-01  2.0339e-02  1.9064e-02  2.9361e+01 -7.1166e-02  0:01:57   64
    37  2.5988e-01  4.5419e-02  4.7726e-02  1.1020e-01  2.4663e-01  1.9689e-02  1.8548e-02  2.9378e+01 -7.1171e-02  0:01:57   63
    38  2.5391e-01  4.3317e-02  4.5441e-02  1.0892e-01  2.4061e-01  1.9072e-02  1.8100e-02  2.9387e+01 -7.1180e-02  0:01:45   62
    39  2.4407e-01  4.2257e-02  4.4239e-02  1.0709e-01  2.3072e-01  1.8712e-02  1.7662e-02  2.9388e+01 -7.1193e-02  0:01:47   61
    40  2.3099e-01  4.2253e-02  4.4109e-02  1.0467e-01  2.1751e-01  1.8454e-02  1.7157e-02  2.9383e+01 -7.1208e-02  0:01:48   60
    41  2.1594e-01  4.3013e-02  4.4799e-02  1.0169e-01  2.0226e-01  1.8299e-02  1.6670e-02  2.9372e+01 -7.1224e-02  0:01:49   59
    42  2.0031e-01  4.4288e-02  4.6036e-02  9.8267e-02  1.8632e-01  1.8248e-02  1.6275e-02  2.9356e+01 -7.1241e-02  0:01:49   58
    43  1.8566e-01  4.5642e-02  4.7399e-02  9.4520e-02  1.7129e-01  1.8317e-02  1.5971e-02  2.9337e+01 -7.1259e-02  0:01:48   57
    44  1.7340e-01  4.6842e-02  4.8628e-02  9.0576e-02  1.5863e-01  1.8380e-02  1.5776e-02  2.9315e+01 -7.1276e-02  0:01:47   56

  iter  continuity  x-velocity  y-velocity  z-velocity      energy           k     epsilon  outlet_vel  outlet_mas     time/iter
    45  1.6416e-01  4.7735e-02  4.9559e-02  8.6554e-02  1.4906e-01  1.8528e-02  1.5644e-02  2.9291e+01 -7.1291e-02  0:01:46   55
    46  1.5815e-01  4.8211e-02  5.0010e-02  8.2593e-02  1.4286e-01  1.8691e-02  1.5514e-02  2.9267e+01 -7.1303e-02  0:01:45   54
    47  1.5520e-01  4.8227e-02  5.0019e-02  7.8776e-02  1.3992e-01  1.8877e-02  1.5402e-02  2.9243e+01 -7.1312e-02  0:01:44   53
    48  1.5475e-01  4.7872e-02  4.9665e-02  7.5183e-02  1.3965e-01  1.9008e-02  1.5349e-02  2.9221e+01 -7.1318e-02  0:01:42   52
    49  1.5611e-01  4.7256e-02  4.9032e-02  7.1870e-02  1.4132e-01  1.9074e-02  1.5246e-02  2.9201e+01 -7.1320e-02  0:01:41   51
    50  1.5838e-01  4.6471e-02  4.8238e-02  6.8872e-02  1.4394e-01  1.9123e-02  1.5087e-02  2.9182e+01 -7.1320e-02  0:01:39   50
    51  1.6069e-01  4.5624e-02  4.7377e-02  6.6250e-02  1.4658e-01  1.9111e-02  1.4913e-02  2.9166e+01 -7.1318e-02  0:01:27   49
    52  1.6228e-01  4.4829e-02  4.6558e-02  6.4017e-02  1.4844e-01  1.8982e-02  1.4704e-02  2.9152e+01 -7.1315e-02  0:01:28   48
    53  1.6269e-01  4.4169e-02  4.5837e-02  6.2175e-02  1.4903e-01  1.8820e-02  1.4450e-02  2.9140e+01 -7.1313e-02  0:01:27   47
    54  1.6195e-01  4.3684e-02  4.5274e-02  6.0760e-02  1.4841e-01  1.8605e-02  1.4168e-02  2.9130e+01 -7.1312e-02  0:01:27   46
    55  1.6040e-01  4.3336e-02  4.4844e-02  5.9741e-02  1.4695e-01  1.8334e-02  1.3890e-02  2.9123e+01 -7.1313e-02  0:01:26   45

  iter  continuity  x-velocity  y-velocity  z-velocity      energy           k     epsilon  outlet_vel  outlet_mas     time/iter
    56  1.5862e-01  4.3121e-02  4.4568e-02  5.9091e-02  1.4527e-01  1.8007e-02  1.3605e-02  2.9118e+01 -7.1315e-02  0:01:16   44
    57  1.5720e-01  4.2991e-02  4.4373e-02  5.8775e-02  1.4401e-01  1.7648e-02  1.3340e-02  2.9115e+01 -7.1319e-02  0:01:17   43
    58  1.5661e-01  4.2948e-02  4.4268e-02  5.8763e-02  1.4367e-01  1.7226e-02  1.3075e-02  2.9114e+01 -7.1323e-02  0:01:17   42
    59  1.5713e-01  4.2981e-02  4.4249e-02  5.9021e-02  1.4455e-01  1.6797e-02  1.2816e-02  2.9115e+01 -7.1328e-02  0:01:16   41
    60  1.5877e-01  4.3063e-02  4.4294e-02  5.9525e-02  1.4663e-01  1.6356e-02  1.2567e-02  2.9118e+01 -7.1333e-02  0:01:08   40
    61  1.6134e-01  4.3193e-02  4.4405e-02  6.0210e-02  1.4970e-01  1.5908e-02  1.2347e-02  2.9124e+01 -7.1337e-02  0:01:08   39
    62  1.6457e-01  4.3362e-02  4.4575e-02  6.1017e-02  1.5347e-01  1.5468e-02  1.2147e-02  2.9131e+01 -7.1340e-02  0:01:08   38
    63  1.6818e-01  4.3569e-02  4.4800e-02  6.1895e-02  1.5763e-01  1.5053e-02  1.1968e-02  2.9139e+01 -7.1342e-02  0:01:08   37
    64  1.7188e-01  4.3803e-02  4.5062e-02  6.2769e-02  1.6187e-01  1.4670e-02  1.1812e-02  2.9149e+01 -7.1343e-02  0:01:07   36
    65  1.7539e-01  4.4037e-02  4.5329e-02  6.3559e-02  1.6592e-01  1.4319e-02  1.1690e-02  2.9161e+01 -7.1342e-02  0:00:59   35
    66  1.7847e-01  4.4262e-02  4.5584e-02  6.4234e-02  1.6950e-01  1.3990e-02  1.1593e-02  2.9173e+01 -7.1341e-02  0:01:00   34

  iter  continuity  x-velocity  y-velocity  z-velocity      energy           k     epsilon  outlet_vel  outlet_mas     time/iter
    67  1.8100e-01  4.4477e-02  4.5836e-02  6.4747e-02  1.7253e-01  1.3672e-02  1.1523e-02  2.9186e+01 -7.1338e-02  0:01:00   33
    68  1.8286e-01  4.4665e-02  4.6040e-02  6.5082e-02  1.7485e-01  1.3373e-02  1.1471e-02  2.9200e+01 -7.1335e-02  0:00:59   32
    69  1.8384e-01  4.4775e-02  4.6158e-02  6.5212e-02  1.7627e-01  1.3093e-02  1.1432e-02  2.9214e+01 -7.1332e-02  0:00:52   31
    70  1.8381e-01  4.4757e-02  4.6166e-02  6.5130e-02  1.7662e-01  1.2827e-02  1.1398e-02  2.9229e+01 -7.1329e-02  0:00:52   30
    71  1.8269e-01  4.4651e-02  4.6061e-02  6.4821e-02  1.7585e-01  1.2584e-02  1.1371e-02  2.9244e+01 -7.1327e-02  0:00:52   29
    72  1.8048e-01  4.4482e-02  4.5882e-02  6.4260e-02  1.7393e-01  1.2347e-02  1.1337e-02  2.9260e+01 -7.1326e-02  0:00:51   28
    73  1.7718e-01  4.4250e-02  4.5645e-02  6.3418e-02  1.7085e-01  1.2117e-02  1.1291e-02  2.9275e+01 -7.1325e-02  0:00:45   27
    74  1.7281e-01  4.3990e-02  4.5369e-02  6.2294e-02  1.6663e-01  1.1891e-02  1.1222e-02  2.9292e+01 -7.1325e-02  0:00:45   26
    75  1.6773e-01  4.3732e-02  4.5091e-02  6.0887e-02  1.6164e-01  1.1671e-02  1.1136e-02  2.9309e+01 -7.1326e-02  0:00:45   25
    76  1.6213e-01  4.3506e-02  4.4836e-02  5.9243e-02  1.5608e-01  1.1458e-02  1.1026e-02  2.9326e+01 -7.1328e-02  0:00:44   24
    77  1.5624e-01  4.3330e-02  4.4625e-02  5.7457e-02  1.5017e-01  1.1248e-02  1.0899e-02  2.9344e+01 -7.1330e-02  0:00:38   23

  iter  continuity  x-velocity  y-velocity  z-velocity      energy           k     epsilon  outlet_vel  outlet_mas     time/iter
    78  1.5027e-01  4.3190e-02  4.4454e-02  5.5643e-02  1.4415e-01  1.1050e-02  1.0777e-02  2.9363e+01 -7.1332e-02  0:00:38   22
    79  1.4448e-01  4.3072e-02  4.4306e-02  5.3915e-02  1.3825e-01  1.0854e-02  1.0668e-02  2.9384e+01 -7.1335e-02  0:00:37   21
    80  1.3907e-01  4.2961e-02  4.4165e-02  5.2394e-02  1.3269e-01  1.0678e-02  1.0571e-02  2.9405e+01 -7.1338e-02  0:00:37   20
    81  1.3417e-01  4.2828e-02  4.4009e-02  5.1166e-02  1.2762e-01  1.0509e-02  1.0468e-02  2.9428e+01 -7.1340e-02  0:00:35   19
    82  1.2981e-01  4.2661e-02  4.3819e-02  5.0286e-02  1.2306e-01  1.0339e-02  1.0340e-02  2.9452e+01 -7.1342e-02  0:00:34   18
    83  1.2587e-01  4.2454e-02  4.3589e-02  4.9760e-02  1.1889e-01  1.0183e-02  1.0198e-02  2.9479e+01 -7.1343e-02  0:00:29   17
    84  1.2212e-01  4.2200e-02  4.3346e-02  4.9553e-02  1.1490e-01  1.0029e-02  1.0033e-02  2.9507e+01 -7.1343e-02  0:00:28   16
    85  1.1840e-01  4.1927e-02  4.3086e-02  4.9588e-02  1.1089e-01  9.8815e-03  9.8513e-03  2.9539e+01 -7.1342e-02  0:00:27   15
    86  1.1488e-01  4.1660e-02  4.2829e-02  4.9775e-02  1.0704e-01  9.7363e-03  9.6542e-03  2.9573e+01 -7.1341e-02  0:00:26   14
    87  1.1193e-01  4.1428e-02  4.2605e-02  5.0022e-02  1.0376e-01  9.6034e-03  9.4505e-03  2.9611e+01 -7.1338e-02  0:00:24   13
    88  1.1028e-01  4.1263e-02  4.2447e-02  5.0247e-02  1.0181e-01  9.4844e-03  9.2398e-03  2.9653e+01 -7.1335e-02  0:00:25   12

  iter  continuity  x-velocity  y-velocity  z-velocity      energy           k     epsilon  outlet_vel  outlet_mas     time/iter
    89  1.1085e-01  4.1185e-02  4.2371e-02  5.0405e-02  1.0216e-01  9.3731e-03  9.0239e-03  2.9699e+01 -7.1331e-02  0:00:23   11
    90  1.1405e-01  4.1199e-02  4.2375e-02  5.0471e-02  1.0528e-01  9.2715e-03  8.8064e-03  2.9751e+01 -7.1326e-02  0:00:23   10
    91  1.1930e-01  4.1306e-02  4.2469e-02  5.0434e-02  1.1056e-01  9.1870e-03  8.5992e-03  2.9808e+01 -7.1321e-02  0:00:20    9
    92  1.2520e-01  4.1485e-02  4.2640e-02  5.0299e-02  1.1656e-01  9.1104e-03  8.4228e-03  2.9872e+01 -7.1315e-02  0:00:17    8
    93  1.3040e-01  4.1702e-02  4.2855e-02  5.0095e-02  1.2188e-01  9.0448e-03  8.3158e-03  2.9943e+01 -7.1310e-02  0:00:14    7
    94  1.3459e-01  4.1926e-02  4.3081e-02  4.9813e-02  1.2623e-01  8.9850e-03  8.2686e-03  3.0022e+01 -7.1304e-02  0:00:12    6
    95  1.3789e-01  4.2124e-02  4.3293e-02  4.9514e-02  1.2971e-01  8.9320e-03  8.2690e-03  3.0109e+01 -7.1299e-02  0:00:10    5
    96  1.4033e-01  4.2258e-02  4.3479e-02  4.9202e-02  1.3238e-01  8.8822e-03  8.3018e-03  3.0205e+01 -7.1294e-02  0:00:09    4
    97  1.4193e-01  4.2334e-02  4.3606e-02  4.8893e-02  1.3424e-01  8.8282e-03  8.3540e-03  3.0310e+01 -7.1289e-02  0:00:06    3
    98  1.4273e-01  4.2316e-02  4.3653e-02  4.8597e-02  1.3535e-01  8.7784e-03  8.4160e-03  3.0423e+01 -7.1285e-02  0:00:05    2
    99  1.4282e-01  4.2211e-02  4.3604e-02  4.8327e-02  1.3577e-01  8.7313e-03  8.4886e-03  3.0547e+01 -7.1282e-02  0:00:02    1

  iter  continuity  x-velocity  y-velocity  z-velocity      energy           k     epsilon  outlet_vel  outlet_mas     time/iter
   100  1.4234e-01  4.2017e-02  4.3463e-02  4.8090e-02  1.3565e-01  8.6791e-03  8.5676e-03  3.0678e+01 -7.1280e-02  0:00:00    0

Calculation complete.
(cx-gui-do cx-activate-item "Information*OK")
(cx-gui-do cx-activate-item "Quick Edit*Table1*PushButton4(icon_close)")
(cx-gui-do cx-set-list-tree-selections "NavigationPane*Frame2*Table1*List_Tree2" (list "Results|Graphics|Pathlines|pathlines-1"))
(cx-gui-do cx-list-tree-right-click "NavigationPane*Frame2*Table1*List_Tree2" )
(cx-gui-do cx-activate-item "MenuBar*PopupMenuTree-pathlines-1*Display")
(cxg-clear-all-selections (cx-active-window))
(cxg-add-surfaces-to-selection '() (cx-active-window))

number tracked = 75561, escaped = 57832, aborted = 268, incomplete = 17461
(cx-use-window-id 51)
(cx-set-camera-relative '(-0.0144354 0.0156033 0.0381352) '(0 0 0) '(0.0231104 -0.011658 0.0133824) 0 0)
(cx-use-window-id 51)
(cx-set-camera-relative '(-0.0247072 -0.389621 0.599177) '(0 0 0) '(-0.539478 0.0684194 -0.197698) 0 0)
(cx-use-window-id 51)
(cx-set-camera-relative '(0.269365 0.290767 -0.287613) '(0 0 0) '(1.13537 -0.895997 0.306518) 0 0)
(cx-use-window-id 51)
(cx-set-camera-relative '(0.174842 -0.420139 0.16161) '(0 0 0) '(-1.50478 -0.685683 0.203681) 0 0)
(cx-use-window-id 51)
(cx-set-camera-relative '(0.0413091 0.308264 -0.0113807) '(0 0 0) '(0.52813 0.662757 0.441863) 0 0)
(cx-use-window-id 51)
(cx-set-camera-relative '(0.186319 -0.109562 -0.0344317) '(0 0 0) '(0.0893535 -0.106159 0.000615537) 0 0)
(cx-use-window-id 51)
(cx-set-camera-relative '(-0.201798 -0.146277 -0.277626) '(0 0 0) '(0.858536 -0.238095 -0.678299) 0 0)
(cx-use-window-id 51)
(cx-set-camera-relative '(0.0465812 -0.125669 0.130356) '(0 0 0) '(-0.435232 0.279746 0.563866) 0 0)
(cx-use-window-id 51)
(cx-set-camera-relative '(0.039728 0.0632922 0.151788) '(0 0 0) '(-0.572977 0.634641 -0.113422) 0 0)
(cx-use-window-id 51)
(cx-set-camera-relative '(-0.00403734 0.00871283 0.0130872) '(0 0 0) '(-0.0582703 0.0376194 -0.0429727) 0 0)
(cx-use-window-id 51)
(cx-set-camera-relative '(-0.117332 0.0459897 0.0808795) '(0 0 0) '(-0.387045 0.136672 -0.499181) 0 0)
(cx-use-window-id 51)
(cx-set-camera-relative '(0.25698 -0.251813 -0.391548) '(0 0 0) '(0.514988 -0.65574 0.760523) 0 0)
(cx-use-window-id 51)
(cx-set-camera-relative '(-0.178964 0.0467418 0.279872) '(0 0 0) '(-0.29095 0.47475 -0.276936) 0 0)
(cx-use-window-id 51)
(cx-use-window-id 51)
(cx-set-camera-relative '(0.0193864 -0.0569135 -0.0738241) '(0 0 0) '(0.0593694 -0.136842 0.121018) 0 0)
(cx-gui-do cx-set-list-tree-selections "NavigationPane*Frame2*Table1*List_Tree2" (list "Results|Graphics|Contours|contour-8"))
(cx-gui-do cx-set-list-tree-selections "NavigationPane*Frame2*Table1*List_Tree2" (list "Results|Graphics|Contours|contour-1"))
(cx-gui-do cx-list-tree-right-click "NavigationPane*Frame2*Table1*List_Tree2" )
(cx-gui-do cx-activate-item "MenuBar*PopupMenuTree-contour-1*Display")
(cx-use-window-id 51)
(cx-set-camera-relative '(0.0449107 -0.0575438 -0.376345) '(0 0 0) '(0.331266 -0.688423 0.144672) 0 0)
[...]
                          outlet           30.678314
(cx-use-window-id 51)
(cx-set-camera-relative '(0.0608704 0.0120338 -0.0940098) '(0 0 0) '(-0.0365444 0.16745 -0.102544) 0 0)
(cx-gui-do cx-set-list-tree-selections "NavigationPane*Frame2*Table1*List_Tree2" (list "Solution|Report Definitions|outlet_mass-flow-rate"))
(cx-use-window-id 51)
(cx-set-camera-relative '(-0.0201511 0.116109 0.397247) '(0 0 0) '(0.00635326 -0.0195762 0.0108377) 0 0)
(cx-use-window-id 51)
(cx-set-camera-relative '(-0.12487 0.127987 0.0898737) '(0 0 0) '(0.0134325 -0.184389 0.259018) 0 0)
(cx-use-window-id 51)
(cx-set-camera-relative '(0.116559 -0.0528663 -0.0262707) '(0 0 0) '(-0.00954342 0.152784 -0.311422) 0 0)
(cx-gui-do cx-set-list-tree-selections "NavigationPane*Frame2*Table1*List_Tree2" (list "Results|Graphics|Vectors"))
(cx-gui-do cx-set-list-tree-selections "NavigationPane*Frame2*Table1*List_Tree2" (list "Results|Graphics|Contours|contour-1"))
(cx-gui-do cx-set-list-tree-selections "NavigationPane*Frame2*Table1*List_Tree2" (list "Results|Graphics|Contours|contour-1"))
(cx-gui-do cx-list-tree-right-click "NavigationPane*Frame2*Table1*List_Tree2" )
(cx-gui-do cx-activate-item "MenuBar*PopupMenuTree-contour-1*Display")
(cx-use-window-id 51)
(cx-set-camera-relative '(0.00498345 -0.0395008 -0.0316781) '(0 0 0) '(0.00153285 -0.00483698 0.00331834) 0 0)
(cx-use-window-id 51)
(cx-set-camera-relative '(0.0157341 -0.0214906 -0.0333648) '(0 0 0) '(-0.0176974 0.0476138 -0.0390049) 0 0)
(cx-gui-do cx-set-list-tree-selections "NavigationPane*Frame2*Table1*List_Tree2" (list "Results|Graphics|Contours|contour-5"))
(cx-gui-do cx-list-tree-right-click "NavigationPane*Frame2*Table1*List_Tree2" )
(cx-gui-do cx-activate-item "MenuBar*PopupMenuTree-contour-5*Display")
(cx-use-window-id 51)
(cx-set-camera-relative '(-0.0242342 0.0355835 0.0517109) '(0 0 0) '(0.0202685 -0.054441 0.0484198) 0 0)
(cx-gui-do cx-set-list-tree-selections "NavigationPane*Frame2*Table1*List_Tree2" (list "Solution|Report Definitions"))
(cx-gui-do cx-set-list-tree-selections "NavigationPane*Frame2*Table1*List_Tree2" (list "Solution|Report Definitions"))
(cx-gui-do cx-list-tree-right-click "NavigationPane*Frame2*Table1*List_Tree2" )
(cx-gui-do cx-activate-item "MenuBar*PopupMenuTree-Report Definitions*Edit...")
(cx-gui-do cx-activate-item "Report Definitions*Table1*ButtonBox3*PushButton1(New)")
(cx-gui-do cx-activate-item "MenuBar*Surface ReportSubMenu*Area-Weighted Average...")
(cx-gui-do cx-set-text-entry "Surface Report Definition*Table1*Table1*TextEntry1(Name)" "pressures")
(cx-gui-do cx-activate-item "Surface Report Definition*Table1*Table1*TextEntry1(Name)")
(cx-gui-do cx-set-integer-entry "Surface Report Definition*Table1*Table1*Table2(Options)*IntegerEntry7(Average Over)" 2)
(cx-gui-do cx-activate-item "Surface Report Definition*Table1*Table1*Table2(Options)*IntegerEntry7(Average Over)")
(cx-gui-do cx-set-integer-entry "Surface Report Definition*Table1*Table1*Table2(Options)*IntegerEntry7(Average Over)" 1)
(cx-gui-do cx-activate-item "Surface Report Definition*Table1*Table1*Table2(Options)*IntegerEntry7(Average Over)")
(cx-gui-do cx-set-toggle-button2 "Surface Report Definition*Table1*Table1*Table2(Options)*CheckButton6(Per Surface)" #t)
(cx-gui-do cx-activate-item "Surface Report Definition*Table1*Table1*Table2(Options)*CheckButton6(Per Surface)")
(cx-gui-do cx-set-list-selections "Surface Report Definition*Table1*Table2*Table6*List1(Surfaces)" '( 0))
(cx-gui-do cx-activate-item "Surface Report Definition*Table1*Table2*Table6*List1(Surfaces)")
(cx-gui-do cx-set-list-selections "Surface Report Definition*Table1*Table2*Table6*List1(Surfaces)" '( 0 1))
(cx-gui-do cx-activate-item "Surface Report Definition*Table1*Table2*Table6*List1(Surfaces)")
(cx-gui-do cx-set-list-selections "Surface Report Definition*Table1*Table2*Table6*List1(Surfaces)" '( 0 1 2))
(cx-gui-do cx-activate-item "Surface Report Definition*Table1*Table2*Table6*List1(Surfaces)")
(cx-gui-do cx-set-list-selections "Surface Report Definition*Table1*Table2*Table6*List1(Surfaces)" '( 0 1 2 3))
(cx-gui-do cx-activate-item "Surface Report Definition*Table1*Table2*Table6*List1(Surfaces)")
(cx-gui-do cx-set-list-selections "Surface Report Definition*Table1*Table2*Table6*List1(Surfaces)" '( 0 1 2 3 4))
(cx-gui-do cx-activate-item "Surface Report Definition*Table1*Table2*Table6*List1(Surfaces)")
(cx-gui-do cx-set-list-selections "Surface Report Definition*Table1*Table2*Table6*List1(Surfaces)" '( 0 1 2 3 4 5))
(cx-gui-do cx-activate-item "Surface Report Definition*Table1*Table2*Table6*List1(Surfaces)")
(cx-gui-do cx-set-text-entry "Surface Report Definition*Table1*Table1*TextEntry1(Name)" "orifice-pressures")
(cx-gui-do cx-activate-item "Surface Report Definition*Table1*Table1*TextEntry1(Name)")
(cx-gui-do cx-set-toggle-button2 "Surface Report Definition*Table1*Table1*Table6(Create)*CheckButton2(Report Plot)" #f)
(cx-gui-do cx-activate-item "Surface Report Definition*Table1*Table1*Table6(Create)*CheckButton2(Report Plot)")
(cx-gui-do cx-set-toggle-button2 "Surface Report Definition*Table1*Table1*Table6(Create)*CheckButton1(Report File)" #f)
(cx-gui-do cx-activate-item "Surface Report Definition*Table1*Table1*Table6(Create)*CheckButton1(Report File)")
(cx-gui-do cx-activate-item "Surface Report Definition*PanelButtons*PushButton1(OK)")
(cx-gui-do cx-activate-item "Report Definitions*PanelButtons*PushButton1(Close)")
(cx-gui-do cx-set-list-tree-selections "NavigationPane*Frame2*Table1*List_Tree2" (list "Solution|Report Definitions|orifice-pressures"))
(cx-gui-do cx-list-tree-right-click "NavigationPane*Frame2*Table1*List_Tree2" )
(cx-gui-do cx-activate-item "MenuBar*PopupMenuTree-orifice-pressures*Compute")

   orifice-pressures
 -------------------
           Area-Weighted Average                [Pa]
-------------------------------- -------------------
                      inlet_negx           268656.03
                      inlet_negy           649115.97
                     inlet_plusx           649036.28
                     inlet_plusy           649082.72
                inlet_propellant           757947.41
                          outlet           627185.07
                ---------------- -------------------
                             Net           628492.87
(cx-use-window-id 51)
(cx-use-window-id 51)
(cx-set-camera-relative '(-0.028215 0.387948 -0.0239368) '(0 0 0) '(-0.0464042 -0.0767529 -0.259885) 0 0)
(cx-use-window-id 51)
(cx-set-camera-relative '(-0.0024906 0.056946 -0.222388) '(0 0 0) '(-0.0403556 -0.33001 -0.0784886) 0 0)
(cx-gui-do cx-set-list-tree-selections "NavigationPane*Frame2*Table1*List_Tree2" (list "Setup|Boundary Conditions"))
(cx-gui-do cx-set-list-tree-selections "NavigationPane*Frame2*Table1*List_Tree2" (list "Setup|Boundary Conditions"))
(cx-gui-do cx-activate-item "NavigationPane*Frame2*Table1*List_Tree2")
(cx-gui-do cx-set-list-tree-selections "NavigationPane*Frame2*Table1*List_Tree2" (list "Setup|Boundary Conditions"))
(cx-gui-do cx-set-list-selections "Boundary Conditions*Table1*List2(Zone)" '( 7))
(cx-gui-do cx-activate-item "Boundary Conditions*Table1*List2(Zone)")
(cx-gui-do cx-set-list-selections "Boundary Conditions*Table1*List2(Zone)" '( 0))
(cx-gui-do cx-activate-item "Boundary Conditions*Table1*List2(Zone)")
(cx-gui-do cx-activate-item "Boundary Conditions*Table1*Table3*Table4*ButtonBox1*PushButton3(Display Mesh)")
(cx-gui-do cx-activate-item "Mesh Display*PanelButtons*PushButton1(OK)")
(cx-gui-do cx-activate-item "Mesh Display*PanelButtons*PushButton2(Cancel)")
(cx-use-window-id 51)
(cx-set-camera-relative '(-0.0176281 -0.048387 -0.132922) '(0 0 0) '(0.0145991 -0.0914082 0.0868848) 0 0)
(cx-gui-do cx-activate-item "Boundary Conditions*Table1*Table3*Table4*ButtonBox1*PushButton1(Edit)")
(cx-gui-do cx-activate-item "Mass-Flow Outlet*PanelButtons*PushButton2(Cancel)")
(cx-gui-do cx-set-list-selections "Boundary Conditions*Table1*List2(Zone)" '( 1))
(cx-gui-do cx-activate-item "Boundary Conditions*Table1*List2(Zone)")
(cx-gui-do cx-set-list-selections "Boundary Conditions*Table1*List2(Zone)" '( 2))
(cx-gui-do cx-activate-item "Boundary Conditions*Table1*List2(Zone)")
(cx-gui-do cx-set-list-selections "Boundary Conditions*Table1*List2(Zone)" '( 4))
(cx-gui-do cx-activate-item "Boundary Conditions*Table1*List2(Zone)")
(cx-gui-do cx-set-list-selections "Boundary Conditions*Table1*List2(Zone)" '( 0))
(cx-gui-do cx-activate-item "Boundary Conditions*Table1*List2(Zone)")
(cx-gui-do cx-activate-item "Boundary Conditions*Table1*Table3*Table4*ButtonBox1*PushButton1(Edit)")
(cx-gui-do cx-set-list-selections "Mass-Flow Outlet*Frame2*Frame2*Frame1(Momentum)*Table1*DropDownList7(Mass Flow Specification Method)" '( 0))
(cx-gui-do cx-enable-apply-button "Mass-Flow Outlet")
(cx-gui-do cx-activate-item "Mass-Flow Outlet*Frame2*Frame2*Frame1(Momentum)*Table1*DropDownList7(Mass Flow Specification Method)")
(cx-gui-do cx-activate-item "Mass-Flow Outlet*PanelButtons*PushButton2(Cancel)")
(cx-gui-do cx-set-list-selections "Boundary Conditions*Table1*Table3*DropDownList2(Type)" '( 5))
(cx-gui-do cx-activate-item "Boundary Conditions*Table1*Table3*DropDownList2(Type)")
(cx-gui-do cx-activate-tab-index "Mass-Flow Inlet*Frame2*Frame2" 0)
(cx-gui-do cx-activate-tab-index "Mass-Flow Inlet*Frame2*Frame2" 1)
(cx-gui-do cx-activate-tab-index "Mass-Flow Inlet*Frame2*Frame2" 0)
(cx-gui-do cx-activate-tab-index "Mass-Flow Inlet*Frame2*Frame2" 2)
(cx-gui-do cx-activate-tab-index "Mass-Flow Inlet*Frame2*Frame2" 0)
(cx-gui-do cx-activate-tab-index "Mass-Flow Inlet*Frame2*Frame2" 3)
(cx-gui-do cx-activate-tab-index "Mass-Flow Inlet*Frame2*Frame2" 0)
(cx-gui-do cx-activate-tab-index "Mass-Flow Inlet*Frame2*Frame2" 4)
(cx-gui-do cx-activate-tab-index "Mass-Flow Inlet*Frame2*Frame2" 0)
(cx-gui-do cx-activate-tab-index "Mass-Flow Inlet*Frame2*Frame2" 5)
(cx-gui-do cx-activate-tab-index "Mass-Flow Inlet*Frame2*Frame2" 0)
(cx-gui-do cx-activate-tab-index "Mass-Flow Inlet*Frame2*Frame2" 6)
(cx-gui-do cx-activate-tab-index "Mass-Flow Inlet*Frame2*Frame2" 0)
(cx-gui-do cx-activate-tab-index "Mass-Flow Inlet*Frame2*Frame2" 7)
(cx-gui-do cx-activate-tab-index "Mass-Flow Inlet*Frame2*Frame2" 0)
(cx-gui-do cx-activate-tab-index "Mass-Flow Inlet*Frame2*Frame2" 8)
(cx-gui-do cx-activate-tab-index "Mass-Flow Inlet*Frame2*Frame2" 0)
(cx-gui-do cx-enable-apply-button "Mass-Flow Inlet")
(cx-gui-do cx-set-expression-entry "Mass-Flow Inlet*Frame2*Frame2*Frame1(Momentum)*Table1*Table14*ExpressionEntry1(Supersonic/Initial Gauge Pressure)" '("689.476" . 0))
(cx-gui-do cx-activate-item "Mass-Flow Inlet*PanelButtons*PushButton1(OK)")
(cx-gui-do cx-activate-item "Mass-Flow Inlet*PanelButtons*PushButton2(Cancel)")
(cx-gui-do cx-set-list-selections "Boundary Conditions*Table1*List2(Zone)" '( 1))
(cx-gui-do cx-activate-item "Boundary Conditions*Table1*List2(Zone)")
(cx-gui-do cx-set-list-selections "Boundary Conditions*Table1*List2(Zone)" '( 2))
(cx-gui-do cx-activate-item "Boundary Conditions*Table1*List2(Zone)")
(cx-gui-do cx-set-list-selections "Boundary Conditions*Table1*List2(Zone)" '( 1))
(cx-gui-do cx-activate-item "Boundary Conditions*Table1*List2(Zone)")
(cx-gui-do cx-activate-item "Boundary Conditions*Table1*Table3*Table4*ButtonBox1*PushButton1(Edit)")
(cx-gui-do cx-activate-tab-index "Mass-Flow Inlet*Frame2*Frame2" 0)
(cx-gui-do cx-activate-tab-index "Mass-Flow Inlet*Frame2*Frame2" 1)
(cx-gui-do cx-activate-tab-index "Mass-Flow Inlet*Frame2*Frame2" 0)
(cx-gui-do cx-activate-tab-index "Mass-Flow Inlet*Frame2*Frame2" 2)
(cx-gui-do cx-activate-tab-index "Mass-Flow Inlet*Frame2*Frame2" 0)
(cx-gui-do cx-activate-tab-index "Mass-Flow Inlet*Frame2*Frame2" 3)
(cx-gui-do cx-activate-tab-index "Mass-Flow Inlet*Frame2*Frame2" 0)
(cx-gui-do cx-activate-tab-index "Mass-Flow Inlet*Frame2*Frame2" 4)
(cx-gui-do cx-activate-tab-index "Mass-Flow Inlet*Frame2*Frame2" 0)
(cx-gui-do cx-activate-tab-index "Mass-Flow Inlet*Frame2*Frame2" 5)
(cx-gui-do cx-activate-tab-index "Mass-Flow Inlet*Frame2*Frame2" 0)
(cx-gui-do cx-activate-tab-index "Mass-Flow Inlet*Frame2*Frame2" 6)
(cx-gui-do cx-activate-tab-index "Mass-Flow Inlet*Frame2*Frame2" 0)
(cx-gui-do cx-activate-tab-index "Mass-Flow Inlet*Frame2*Frame2" 7)
(cx-gui-do cx-activate-tab-index "Mass-Flow Inlet*Frame2*Frame2" 0)
(cx-gui-do cx-activate-tab-index "Mass-Flow Inlet*Frame2*Frame2" 8)
(cx-gui-do cx-activate-tab-index "Mass-Flow Inlet*Frame2*Frame2" 0)
(cx-gui-do cx-enable-apply-button "Mass-Flow Inlet")
(cx-gui-do cx-set-expression-entry "Mass-Flow Inlet*Frame2*Frame2*Frame1(Momentum)*Table1*Table14*ExpressionEntry1(Supersonic/Initial Gauge Pressure)" '("689476" . 0))
(cx-gui-do cx-activate-item "Mass-Flow Inlet*PanelButtons*PushButton1(OK)")
(cx-gui-do cx-activate-item "Mass-Flow Inlet*PanelButtons*PushButton2(Cancel)")
(cx-gui-do cx-set-list-selections "Boundary Conditions*Table1*List2(Zone)" '( 0))
(cx-gui-do cx-activate-item "Boundary Conditions*Table1*List2(Zone)")
(cx-gui-do cx-activate-item "Boundary Conditions*Table1*Table3*Table4*ButtonBox1*PushButton1(Edit)")
(cx-gui-do cx-enable-apply-button "Mass-Flow Inlet")
(cx-gui-do cx-set-expression-entry "Mass-Flow Inlet*Frame2*Frame2*Frame1(Momentum)*Table1*Table14*ExpressionEntry1(Supersonic/Initial Gauge Pressure)" '("689476" . 0))
(cx-gui-do cx-activate-item "Mass-Flow Inlet*PanelButtons*PushButton1(OK)")
(cx-gui-do cx-activate-item "Mass-Flow Inlet*PanelButtons*PushButton2(Cancel)")
(cx-gui-do cx-set-list-selections "Boundary Conditions*Table1*List2(Zone)" '( 2))
(cx-gui-do cx-activate-item "Boundary Conditions*Table1*List2(Zone)")
(cx-gui-do cx-activate-item "Boundary Conditions*Table1*Table3*Table4*ButtonBox1*PushButton1(Edit)")
(cx-gui-do cx-activate-tab-index "Mass-Flow Inlet*Frame2*Frame2" 0)
(cx-gui-do cx-activate-tab-index "Mass-Flow Inlet*Frame2*Frame2" 1)
(cx-gui-do cx-activate-tab-index "Mass-Flow Inlet*Frame2*Frame2" 0)
(cx-gui-do cx-activate-tab-index "Mass-Flow Inlet*Frame2*Frame2" 2)
(cx-gui-do cx-activate-tab-index "Mass-Flow Inlet*Frame2*Frame2" 0)
(cx-gui-do cx-activate-tab-index "Mass-Flow Inlet*Frame2*Frame2" 3)
(cx-gui-do cx-activate-tab-index "Mass-Flow Inlet*Frame2*Frame2" 0)
(cx-gui-do cx-activate-tab-index "Mass-Flow Inlet*Frame2*Frame2" 4)
(cx-gui-do cx-activate-tab-index "Mass-Flow Inlet*Frame2*Frame2" 0)
(cx-gui-do cx-activate-tab-index "Mass-Flow Inlet*Frame2*Frame2" 5)
(cx-gui-do cx-activate-tab-index "Mass-Flow Inlet*Frame2*Frame2" 0)
(cx-gui-do cx-activate-tab-index "Mass-Flow Inlet*Frame2*Frame2" 6)
(cx-gui-do cx-activate-tab-index "Mass-Flow Inlet*Frame2*Frame2" 0)
(cx-gui-do cx-activate-tab-index "Mass-Flow Inlet*Frame2*Frame2" 7)
(cx-gui-do cx-activate-tab-index "Mass-Flow Inlet*Frame2*Frame2" 0)
(cx-gui-do cx-activate-tab-index "Mass-Flow Inlet*Frame2*Frame2" 8)
(cx-gui-do cx-activate-tab-index "Mass-Flow Inlet*Frame2*Frame2" 0)
(cx-gui-do cx-enable-apply-button "Mass-Flow Inlet")
(cx-gui-do cx-set-expression-entry "Mass-Flow Inlet*Frame2*Frame2*Frame1(Momentum)*Table1*Table14*ExpressionEntry1(Supersonic/Initial Gauge Pressure)" '("689476" . 0))
(cx-gui-do cx-activate-item "Mass-Flow Inlet*PanelButtons*PushButton1(OK)")
(cx-gui-do cx-activate-item "Mass-Flow Inlet*PanelButtons*PushButton2(Cancel)")
(cx-gui-do cx-set-list-selections "Boundary Conditions*Table1*List2(Zone)" '( 3))
(cx-gui-do cx-activate-item "Boundary Conditions*Table1*List2(Zone)")
(cx-gui-do cx-activate-item "Boundary Conditions*Table1*Table3*Table4*ButtonBox1*PushButton1(Edit)")
(cx-gui-do cx-activate-tab-index "Mass-Flow Inlet*Frame2*Frame2" 0)
(cx-gui-do cx-activate-tab-index "Mass-Flow Inlet*Frame2*Frame2" 1)
(cx-gui-do cx-activate-tab-index "Mass-Flow Inlet*Frame2*Frame2" 0)
(cx-gui-do cx-activate-tab-index "Mass-Flow Inlet*Frame2*Frame2" 2)
(cx-gui-do cx-activate-tab-index "Mass-Flow Inlet*Frame2*Frame2" 0)
(cx-gui-do cx-activate-tab-index "Mass-Flow Inlet*Frame2*Frame2" 3)
(cx-gui-do cx-activate-tab-index "Mass-Flow Inlet*Frame2*Frame2" 0)
(cx-gui-do cx-activate-tab-index "Mass-Flow Inlet*Frame2*Frame2" 4)
(cx-gui-do cx-activate-tab-index "Mass-Flow Inlet*Frame2*Frame2" 0)
(cx-gui-do cx-activate-tab-index "Mass-Flow Inlet*Frame2*Frame2" 5)
(cx-gui-do cx-activate-tab-index "Mass-Flow Inlet*Frame2*Frame2" 0)
(cx-gui-do cx-activate-tab-index "Mass-Flow Inlet*Frame2*Frame2" 6)
(cx-gui-do cx-activate-tab-index "Mass-Flow Inlet*Frame2*Frame2" 0)
(cx-gui-do cx-activate-tab-index "Mass-Flow Inlet*Frame2*Frame2" 7)
(cx-gui-do cx-activate-tab-index "Mass-Flow Inlet*Frame2*Frame2" 0)
(cx-gui-do cx-activate-tab-index "Mass-Flow Inlet*Frame2*Frame2" 8)
(cx-gui-do cx-activate-tab-index "Mass-Flow Inlet*Frame2*Frame2" 0)
(cx-gui-do cx-enable-apply-button "Mass-Flow Inlet")
(cx-gui-do cx-set-expression-entry "Mass-Flow Inlet*Frame2*Frame2*Frame1(Momentum)*Table1*Table14*ExpressionEntry1(Supersonic/Initial Gauge Pressure)" '("689476" . 0))
(cx-gui-do cx-activate-item "Mass-Flow Inlet*PanelButtons*PushButton1(OK)")
(cx-gui-do cx-activate-item "Mass-Flow Inlet*PanelButtons*PushButton2(Cancel)")
(cx-gui-do cx-set-list-selections "Boundary Conditions*Table1*List2(Zone)" '( 4))
(cx-gui-do cx-activate-item "Boundary Conditions*Table1*List2(Zone)")
(cx-gui-do cx-activate-item "Boundary Conditions*Table1*Table3*Table4*ButtonBox1*PushButton1(Edit)")
(cx-gui-do cx-activate-tab-index "Mass-Flow Inlet*Frame2*Frame2" 0)
(cx-gui-do cx-activate-tab-index "Mass-Flow Inlet*Frame2*Frame2" 1)
(cx-gui-do cx-activate-tab-index "Mass-Flow Inlet*Frame2*Frame2" 0)
(cx-gui-do cx-activate-tab-index "Mass-Flow Inlet*Frame2*Frame2" 2)
(cx-gui-do cx-activate-tab-index "Mass-Flow Inlet*Frame2*Frame2" 0)
(cx-gui-do cx-activate-tab-index "Mass-Flow Inlet*Frame2*Frame2" 3)
(cx-gui-do cx-activate-tab-index "Mass-Flow Inlet*Frame2*Frame2" 0)
(cx-gui-do cx-activate-tab-index "Mass-Flow Inlet*Frame2*Frame2" 4)
(cx-gui-do cx-activate-tab-index "Mass-Flow Inlet*Frame2*Frame2" 0)
(cx-gui-do cx-activate-tab-index "Mass-Flow Inlet*Frame2*Frame2" 5)
(cx-gui-do cx-activate-tab-index "Mass-Flow Inlet*Frame2*Frame2" 0)
(cx-gui-do cx-activate-tab-index "Mass-Flow Inlet*Frame2*Frame2" 6)
(cx-gui-do cx-activate-tab-index "Mass-Flow Inlet*Frame2*Frame2" 0)
(cx-gui-do cx-activate-tab-index "Mass-Flow Inlet*Frame2*Frame2" 7)
(cx-gui-do cx-activate-tab-index "Mass-Flow Inlet*Frame2*Frame2" 0)
(cx-gui-do cx-activate-tab-index "Mass-Flow Inlet*Frame2*Frame2" 8)
(cx-gui-do cx-activate-tab-index "Mass-Flow Inlet*Frame2*Frame2" 0)
(cx-gui-do cx-set-expression-entry "Mass-Flow Inlet*Frame2*Frame2*Frame1(Momentum)*Table1*Table14*ExpressionEntry1(Supersonic/Initial Gauge Pressure)" '("600000" . 0))
(cx-gui-do cx-set-expression-entry "Mass-Flow Inlet*Frame2*Frame2*Frame1(Momentum)*Table1*Table14*ExpressionEntry1(Supersonic/Initial Gauge Pressure)" '("600000" . 0))
(cx-gui-do cx-set-expression-entry "Mass-Flow Inlet*Frame2*Frame2*Frame1(Momentum)*Table1*Table14*ExpressionEntry1(Supersonic/Initial Gauge Pressure)" '("600000" . 0))
(cx-gui-do cx-activate-item "Mass-Flow Inlet*PanelButtons*PushButton2(Cancel)")
(cx-use-window-id 51)
(cx-set-camera-relative '(-0.306334 -0.239353 0.497999) '(0 0 0) '(-1.0326 1.13495 -0.144051) 0 0)
(cx-use-window-id 51)
(cx-set-camera-relative '(0.0891532 0.201669 -0.474627) '(0 0 0) '(1.00343 -0.594055 0.0723873) 0 0)
(cx-use-window-id 51)
(cx-set-camera-relative '(0.949074 0.126233 0.315752) '(0 0 0) '(0.0324832 -0.690483 0.514205) 0 0)
(cx-use-window-id 51)
(cx-set-camera-relative '(0.245727 -0.606986 0.889685) '(0 0 0) '(-0.396143 -0.435961 -0.184034) 0 0)
(cx-use-window-id 51)
(cxg-clear-all-selections (cx-active-window))
(cxg-add-surfaces-to-selection '(inlet_propellant) (cx-active-window))
(cx-use-window-id 51)
(cx-gui-do cx-activate-item "Quick Edit*Table1*PushButton4(icon_close)")
(cx-use-window-id 51)
/exit y
(cx-gui-do cx-activate-item "Question*OK")

Posting ANSYS Product Improvement Program performance data 
Done.
Auto-Transcript Stop Time:  01:12:02, 10 Jun 2025 Pacific Daylight Time 
Total Transcript Time: 4 Hour 4 Minute 23 Second.
